LAMMPS (12 Dec 2018)
# Reference: M. Orsi, Comparative assessment of the ELBA coarse-grained
# model for water, Molecular Physics (2014), 112, 1566-1576

units real
atom_style full
read_data data.singleTIP4P_2005
  orthogonal box = (0 0 0) to (3.1 3.1 3.1)
  reading atoms ...
  3 atoms
  scanning bonds ...
  scanning angles ...
  reading bonds ...
  2 bonds
  reading angles ...
  1 angles
include forcefield.TIP4P_2005
# This forcefield file sets a 13-Angstrom cutoff, recommended for liquid-
# vapor simulations [Vega & de Miguel, J Chem Phys 126:154707 (2007),
# Vega et al, Faraday Discuss 141:251 (2009)]
# Note that the original TIP4P/2005 model was run with an 8.5 Angstrom
# cutoff [Abascal & Vega, J Chem Phys 123:234505 (2005)].
# Charges and geometry are specified in the "data." file.

mass 1 1.00794 # H
mass 2 15.9994 # O

pair_style lj/cut/tip4p/long 2 1 1 1 0.1546 13.0 #otype htype btype atype rOM cutoff
# style tip4p/long is for use with a long-range Coulombic solver (Ewald or PPPM)
pair_modify tail yes
kspace_style pppm/tip4p 1.0e-5 #desired relative error in forces

pair_coeff 1 1 0.0 0.0
pair_coeff 1 2 0.0 0.0
pair_coeff 2 2 0.18520 3.1589 #epsilon and sigma of O-O

bond_style harmonic
bond_coeff 1 0.0 0.9572 #coefficiet for harmonic bond, k=0, bond length=0.9572

angle_style harmonic
angle_coeff 1 0.0 104.52 #coeffiecient for harmonic angle, k=0

replicate 20 20 20
  orthogonal box = (0 0 0) to (62 62 62)
  24000 atoms
  16000 bonds
  8000 angles
  Time spent = 0.00482297 secs

variable Nrun equal 1000
variable Nf equal 1000/10
variable Ne equal 10
variable Nr equal 100/10
variable Ndump equal 1000/2
variable Nr_rdf equal 0.5*1000/10

variable watMoleMass equal 18.0153 # /(g/mol)
variable nAvog equal 6.0221415e23 # Avogadro's number
variable watMoleculeMass equal (18.0153/6.0221415e+23)
variable A3_in_cm3 equal 1e-24 # Angstrom^3 in cm^3
variable nAtoms equal atoms
variable nMolecules equal v_nAtoms/3

variable Text equal 298.0
variable Pext equal 1.0

group hydrogen type 1
16000 atoms in group hydrogen
group oxygen type 2
8000 atoms in group oxygen

velocity all create 298 1234

neighbor 2.0 bin
neigh_modify every 1 delay 0 check yes

timestep 2.0

fix constrain all shake 1.0e-4 100 0 b 1 a 1
fix integrate all npt temp 298 298 100.0 iso 1 1 1000.0
fix removeMomentum all momentum 1 linear 1 1 1

compute T all temp
fix TempAve all ave/time 10 10 100 c_T

variable P equal press
fix PressAve all ave/time 10 10 100 v_P

compute PE all pe pair kspace
variable PE_Mol equal c_PE/v_nMolecules
fix PEAve_Mol all ave/time 10 10 100 v_PE_Mol

variable Dens equal v_nMolecules*2.99151057808921e-23/(vol*1e-24)
fix DensAve all ave/time 10 10 100 v_Dens file wat.dens

compute	msd oxygen msd com yes
fix msd oxygen ave/time 1 1 500 c_msd[4] file wat.msd

#compute rdf all rdf 1000 2 2 # oxygen-oxygen

thermo_style custom step temp f_TempAve press f_PressAve f_PEAve_Mol f_DensAve
thermo_modify flush yes
thermo 100

dump trj all atom 500 wat.lammpstrj

run 1000
PPPM initialization ...
  extracting TIP4P info from pair style
  G vector (1/distance) = 0.239192
  grid = 45 45 45
  stencil order = 5
  estimated absolute RMS force accuracy = 0.00323434
  estimated relative force accuracy = 9.74012e-06
  3d grid and FFT values/proc = 11484 4140
  update every 1 steps, delay 0 steps, check yes
Step Temp f_TempAve Press f_PressAve f_PEAve_Mol f_DensAve
0    447.00931            0    27120.201            0            0            0
Averages over the last 6 of 11 rows, steps 500 to 1000:
Temp f_TempAve Press f_PressAve f_PEAve_Mol f_DensAve
298.53 301.651 -434.259 -560.539 -11.0278 0.973659
Loop time of 54.3544 on 24 procs for 1000 steps with 24000 atoms

#write_restart restart.wat
