# neighbour list search related settings
neighbor	0.4 bin
neigh_modify	every 10 one 10000

# nonbonding interaction cutoff settings
# class2 type 9-6 lj potential, set cutoff
# real space coulomb, set cutoff
pair_style lj/cut 13.0
# kspace coulomb
# pppm/cg good for systems that are mostly uncharged
#kspace_style pppm 1.0e-4

# class2 bond functionals
bond_style harmonic
angle_style harmonic

# read geometry
read_restart restart.ar_fcc.eq
  restoring atom style full from restart
  orthogonal box = (0 0 0) to (32.256 32.256 32.256)
  restoring pair style lj/cut from restart
  restoring bond style harmonic from restart
  restoring angle style harmonic from restart
  864 atoms

# time step and output frequency
# thermo_style custom time temp pe ke etotal
thermo_style	one
thermo          1000
variable dt equal 4.0
variable T equal 70.0
timestep	4

seed1 = 25568
seed2 = 19374

######################################################
## Equilibration (Langevin dynamics)
## assign initial velocity
## Langevin thermostat, limited step size to 0.1
#fix		1 all nve
## Tstart Tend damp seed
#fix     0 all recenter INIT INIT INIT
#dump        1 all dcd 1000 eq.dcd
## 20ps equibliration
#run		20000
#unfix 0
#unfix 1
#unfix 2
#undump 1

####################################################
# Equilibration (NPT)
#velocity all create 300.0 1231
#fix         1 all npt temp 300.0 300.0 $(100.0*dt) iso 1.0 1.0 $(1000.0*dt)
#dump        1 all dcd 1000 eq.dcd
#run 100000
#unfix 1
#undump 1

####################################################
# NVT equilibration
velocity 	all create 70 25568 mom yes rot yes dist gaussian
fix         NVT all nvt temp $T $T 100.0
fix         NVT all nvt temp 70 $T 100.0
fix         NVT all nvt temp 70 70 100.0
fix center all recenter INIT INIT INIT
dump        1 all dcd 1000 eq.dcd
run         10000
Unused restart file global fix info:
  fix style: nvt, fix ID: 1
  update every 10 steps, delay 10 steps, check yes
Step Temp E_pair E_mol TotEng Press
10000           70   -1540.2593            0   -1360.1885    584.62278
Averages over the last 6 of 11 rows, steps 15000 to 20000:
Temp E_pair E_mol TotEng Press
70.5279 -1545.15 0 -1363.73 532.614
Loop time of 1.93994 on 24 procs for 10000 steps with 864 atoms

unfix       NVT
undump      1

#####################################################
# Define Settings
compute perke all ke/atom
compute perpe all pe/atom
compute perstress all stress/atom NULL virial
compute flux all heat/flux perke perpe perstress
# normalize J vector using volume of the box
# see https://lammps.sandia.gov/doc/compute_heat_flux.html
variable     Jx equal c_flux[1] #/vol
variable     Jy equal c_flux[2] #/vol
variable     Jz equal c_flux[3] #/vol

######################################################
# production run with NVE
# reset time step 0.5 fs
timestep 4
# reset time
reset_timestep 0
thermo_style custom step time temp pe ke etotal v_Jx v_Jy v_Jz
thermo_modify line multi format float %15.8e
thermo 1000
fix 1 all nve
fix 2 all ave/correlate 10 200 2000 c_flux[1] c_flux[2] c_flux[3] type auto file corr.data ave running
dump 		2 all dcd 1000 nve.dcd
run 100000 # 400 ps
Step     =              0 Time     =  4.00000000e+04 Temp     =  7.15845198e+01
PotEng   = -1.54564191e+03 KinEng   =  1.84146816e+02 TotEng   = -1.36149510e+03
v_Jx     = -4.86788343e-02 v_Jy     =  3.28336330e-02 v_Jz     = -9.01822059e-02
Step     =           1000 Time     =  4.40000000e+04 Temp     =  6.84501080e+01
PotEng   = -1.53758253e+03 KinEng   =  1.76083732e+02 TotEng   = -1.36149880e+03
v_Jx     = -1.47117018e-02 v_Jy     =  6.92430995e-02 v_Jz     =  4.17384628e-02
Step     =           2000 Time     =  4.80000000e+04 Temp     =  6.97406788e+01
PotEng   = -1.54090524e+03 KinEng   =  1.79403647e+02 TotEng   = -1.36150159e+03
v_Jx     = -1.19373987e-02 v_Jy     = -5.18296983e-02 v_Jz     =  3.52351168e-03
Step     =           3000 Time     =  5.20000000e+04 Temp     =  6.97212793e+01
PotEng   = -1.54085561e+03 KinEng   =  1.79353743e+02 TotEng   = -1.36150187e+03
v_Jx     =  8.43726332e-03 v_Jy     = -2.41527565e-02 v_Jz     =  1.22115495e-01
Step     =           4000 Time     =  5.60000000e+04 Temp     =  7.21262633e+01
PotEng   = -1.54703722e+03 KinEng   =  1.85540418e+02 TotEng   = -1.36149681e+03
v_Jx     = -5.47635681e-02 v_Jy     =  2.75568624e-02 v_Jz     =  2.57228452e-02
Step     =           5000 Time     =  6.00000000e+04 Temp     =  6.77735933e+01
PotEng   = -1.53583185e+03 KinEng   =  1.74343439e+02 TotEng   = -1.36148841e+03
v_Jx     = -1.23986512e-02 v_Jy     =  4.08414590e-02 v_Jz     = -3.15259890e-02
Step     =           6000 Time     =  6.40000000e+04 Temp     =  6.92413357e+01
PotEng   = -1.53961297e+03 KinEng   =  1.78119118e+02 TotEng   = -1.36149385e+03
v_Jx     = -4.76104583e-02 v_Jy     =  2.56756272e-02 v_Jz     =  2.95483964e-02
Step     =           7000 Time     =  6.80000000e+04 Temp     =  6.96255030e+01
PotEng   = -1.54059675e+03 KinEng   =  1.79107364e+02 TotEng   = -1.36148938e+03
v_Jx     = -7.18696185e-05 v_Jy     =  1.66641593e-02 v_Jz     = -5.23109500e-02
Step     =           8000 Time     =  7.20000000e+04 Temp     =  7.03789007e+01
PotEng   = -1.54255894e+03 KinEng   =  1.81045434e+02 TotEng   = -1.36151351e+03
v_Jx     = -2.96898708e-02 v_Jy     =  2.59441245e-02 v_Jz     =  2.04876892e-02
Step     =           9000 Time     =  7.60000000e+04 Temp     =  7.07859254e+01
PotEng   = -1.54358304e+03 KinEng   =  1.82092480e+02 TotEng   = -1.36149056e+03
v_Jx     =  4.01565668e-03 v_Jy     = -3.44174966e-03 v_Jz     =  8.18655942e-02
Step     =          10000 Time     =  8.00000000e+04 Temp     =  7.10987270e+01
PotEng   = -1.54438178e+03 KinEng   =  1.82897143e+02 TotEng   = -1.36148463e+03
v_Jx     =  1.84103922e-02 v_Jy     = -2.52646307e-02 v_Jz     = -3.24347941e-02
Step     =          11000 Time     =  8.40000000e+04 Temp     =  6.91383268e+01
PotEng   = -1.53935588e+03 KinEng   =  1.77854133e+02 TotEng   = -1.36150175e+03
v_Jx     =  2.65787414e-02 v_Jy     = -1.07618902e-01 v_Jz     =  2.58199207e-02
Step     =          12000 Time     =  8.80000000e+04 Temp     =  7.05922982e+01
PotEng   = -1.54307412e+03 KinEng   =  1.81594386e+02 TotEng   = -1.36147973e+03
v_Jx     =  3.94091176e-02 v_Jy     =  5.16987885e-02 v_Jz     =  3.85704734e-02
Step     =          13000 Time     =  9.20000000e+04 Temp     =  7.03928749e+01
PotEng   = -1.54259600e+03 KinEng   =  1.81081382e+02 TotEng   = -1.36151462e+03
v_Jx     = -8.79644031e-02 v_Jy     = -5.05420983e-02 v_Jz     = -5.13929648e-02
Step     =          14000 Time     =  9.60000000e+04 Temp     =  7.02475644e+01
PotEng   = -1.54224440e+03 KinEng   =  1.80707580e+02 TotEng   = -1.36153682e+03
v_Jx     = -4.84768329e-02 v_Jy     =  8.13654708e-03 v_Jz     = -7.75051277e-02
Step     =          15000 Time     =  1.00000000e+05 Temp     =  6.82054576e+01
PotEng   = -1.53694712e+03 KinEng   =  1.75454384e+02 TotEng   = -1.36149274e+03
v_Jx     =  8.13632232e-03 v_Jy     = -2.52739758e-02 v_Jz     = -1.10247633e-03
Step     =          16000 Time     =  1.04000000e+05 Temp     =  6.94105291e+01
PotEng   = -1.54005487e+03 KinEng   =  1.78554357e+02 TotEng   = -1.36150051e+03
v_Jx     = -8.65237826e-02 v_Jy     = -5.38569438e-02 v_Jz     =  5.01344948e-03
Step     =          17000 Time     =  1.08000000e+05 Temp     =  6.92077548e+01
PotEng   = -1.53948554e+03 KinEng   =  1.78032733e+02 TotEng   = -1.36145280e+03
v_Jx     =  8.28260276e-02 v_Jy     = -1.47166114e-02 v_Jz     =  4.66962111e-02
Step     =          18000 Time     =  1.12000000e+05 Temp     =  7.00555829e+01
PotEng   = -1.54173008e+03 KinEng   =  1.80213719e+02 TotEng   = -1.36151636e+03
v_Jx     =  2.65988766e-02 v_Jy     =  1.62604556e-02 v_Jz     = -2.89059857e-02
Step     =          19000 Time     =  1.16000000e+05 Temp     =  7.11596233e+01
PotEng   = -1.54455899e+03 KinEng   =  1.83053795e+02 TotEng   = -1.36150520e+03
v_Jx     = -3.42278151e-02 v_Jy     = -3.51144521e-02 v_Jz     = -1.40726471e-01
Step     =          20000 Time     =  1.20000000e+05 Temp     =  6.97767801e+01
PotEng   = -1.54101480e+03 KinEng   =  1.79496515e+02 TotEng   = -1.36151829e+03
v_Jx     = -1.61589807e-03 v_Jy     = -4.08864821e-02 v_Jz     =  3.62191096e-02
Step     =          21000 Time     =  1.24000000e+05 Temp     =  6.77959938e+01
PotEng   = -1.53589702e+03 KinEng   =  1.74401063e+02 TotEng   = -1.36149596e+03
v_Jx     =  2.92837007e-02 v_Jy     =  1.12934559e-01 v_Jz     =  8.00535779e-02
Step     =          22000 Time     =  1.28000000e+05 Temp     =  7.25086405e+01
PotEng   = -1.54801132e+03 KinEng   =  1.86524060e+02 TotEng   = -1.36148726e+03
v_Jx     =  2.47021578e-02 v_Jy     =  1.91435190e-02 v_Jz     = -1.16720600e-01
Step     =          23000 Time     =  1.32000000e+05 Temp     =  7.15090838e+01
PotEng   = -1.54547357e+03 KinEng   =  1.83952761e+02 TotEng   = -1.36152081e+03
v_Jx     = -3.82519807e-02 v_Jy     = -9.18701582e-02 v_Jz     =  1.44888215e-02
Step     =          24000 Time     =  1.36000000e+05 Temp     =  6.94442261e+01
PotEng   = -1.54014534e+03 KinEng   =  1.78641041e+02 TotEng   = -1.36150430e+03
v_Jx     = -1.12170977e-02 v_Jy     = -9.14016424e-02 v_Jz     =  9.77195184e-02
Step     =          25000 Time     =  1.40000000e+05 Temp     =  7.06116880e+01
PotEng   = -1.54313908e+03 KinEng   =  1.81644265e+02 TotEng   = -1.36149482e+03
v_Jx     =  6.76925686e-02 v_Jy     = -9.18194290e-02 v_Jz     = -1.05880186e-01
Step     =          26000 Time     =  1.44000000e+05 Temp     =  7.09652413e+01
PotEng   = -1.54408093e+03 KinEng   =  1.82553760e+02 TotEng   = -1.36152717e+03
v_Jx     =  3.28066165e-02 v_Jy     = -2.60089022e-02 v_Jz     =  1.05022869e-02
Step     =          27000 Time     =  1.48000000e+05 Temp     =  7.05642119e+01
PotEng   = -1.54302140e+03 KinEng   =  1.81522136e+02 TotEng   = -1.36149926e+03
v_Jx     =  1.96187110e-02 v_Jy     =  4.61056298e-03 v_Jz     =  1.16432754e-02
Step     =          28000 Time     =  1.52000000e+05 Temp     =  7.10389727e+01
PotEng   = -1.54427046e+03 KinEng   =  1.82743429e+02 TotEng   = -1.36152703e+03
v_Jx     = -6.96398403e-02 v_Jy     =  2.26754706e-02 v_Jz     =  3.97777016e-02
Step     =          29000 Time     =  1.56000000e+05 Temp     =  6.81214635e+01
PotEng   = -1.53670101e+03 KinEng   =  1.75238314e+02 TotEng   = -1.36146269e+03
v_Jx     = -3.64038578e-02 v_Jy     =  6.88689250e-02 v_Jz     = -9.65903290e-02
Step     =          30000 Time     =  1.60000000e+05 Temp     =  7.01655768e+01
PotEng   = -1.54200840e+03 KinEng   =  1.80496671e+02 TotEng   = -1.36151173e+03
v_Jx     =  3.03196632e-02 v_Jy     = -2.16639039e-02 v_Jz     = -6.03774940e-02
Step     =          31000 Time     =  1.64000000e+05 Temp     =  7.12410861e+01
PotEng   = -1.54475689e+03 KinEng   =  1.83263353e+02 TotEng   = -1.36149354e+03
v_Jx     = -3.18951798e-02 v_Jy     = -1.06593329e-02 v_Jz     =  1.60987813e-02
Step     =          32000 Time     =  1.68000000e+05 Temp     =  7.10443943e+01
PotEng   = -1.54423957e+03 KinEng   =  1.82757376e+02 TotEng   = -1.36148220e+03
v_Jx     = -1.51725941e-02 v_Jy     =  1.81374950e-02 v_Jz     =  5.88252607e-03
Step     =          33000 Time     =  1.72000000e+05 Temp     =  7.07966281e+01
PotEng   = -1.54362854e+03 KinEng   =  1.82120012e+02 TotEng   = -1.36150853e+03
v_Jx     =  3.15332666e-03 v_Jy     =  2.56194988e-02 v_Jz     =  2.62563649e-02
Step     =          34000 Time     =  1.76000000e+05 Temp     =  7.21718581e+01
PotEng   = -1.54715825e+03 KinEng   =  1.85657708e+02 TotEng   = -1.36150054e+03
v_Jx     =  3.22515287e-02 v_Jy     =  7.68100552e-03 v_Jz     = -1.66069105e-03
Step     =          35000 Time     =  1.80000000e+05 Temp     =  7.27738623e+01
PotEng   = -1.54869932e+03 KinEng   =  1.87206327e+02 TotEng   = -1.36149299e+03
v_Jx     = -4.94858050e-02 v_Jy     = -7.65887148e-02 v_Jz     =  2.18446465e-02
Step     =          36000 Time     =  1.84000000e+05 Temp     =  7.09788899e+01
PotEng   = -1.54410615e+03 KinEng   =  1.82588870e+02 TotEng   = -1.36151728e+03
v_Jx     =  1.83631621e-02 v_Jy     = -5.82117124e-04 v_Jz     =  1.05944667e-01
Step     =          37000 Time     =  1.88000000e+05 Temp     =  6.91106690e+01
PotEng   = -1.53926449e+03 KinEng   =  1.77782985e+02 TotEng   = -1.36148150e+03
v_Jx     = -9.83167948e-03 v_Jy     = -4.08554043e-02 v_Jz     =  2.73495109e-02
Step     =          38000 Time     =  1.92000000e+05 Temp     =  6.91920929e+01
PotEng   = -1.53951796e+03 KinEng   =  1.77992443e+02 TotEng   = -1.36152551e+03
v_Jx     = -1.60134366e-02 v_Jy     =  5.26591530e-03 v_Jz     = -6.41729598e-02
PotEng   = -1.53766336e+03 KinEng   =  1.76164600e+02 TotEng   = -1.36149876e+03
v_Jx     = -1.58610473e-01 v_Jy     =  5.52458245e-02 v_Jz     = -4.99095888e-03
PotEng   = -1.54789493e+03 KinEng   =  1.86384396e+02 TotEng   = -1.36151053e+03
v_Jx     = -6.31465882e-02 v_Jy     = -1.04279375e-02 v_Jz     = -4.76488965e-02
PotEng   = -1.54466817e+03 KinEng   =  1.83143422e+02 TotEng   = -1.36152475e+03
v_Jx     =  3.27287096e-02 v_Jy     =  3.59881361e-02 v_Jz     =  3.83090246e-02
PotEng   = -1.54174655e+03 KinEng   =  1.80250556e+02 TotEng   = -1.36149599e+03
v_Jx     = -7.78313337e-02 v_Jy     = -2.15322297e-02 v_Jz     = -1.57104138e-02
PotEng   = -1.53889551e+03 KinEng   =  1.77406138e+02 TotEng   = -1.36148937e+03
v_Jx     =  9.30413380e-03 v_Jy     =  9.17497024e-02 v_Jz     = -9.49923070e-03
PotEng   = -1.53841591e+03 KinEng   =  1.76901323e+02 TotEng   = -1.36151459e+03
v_Jx     =  6.67432621e-02 v_Jy     =  4.89030743e-02 v_Jz     =  7.41695700e-02
PotEng   = -1.54202179e+03 KinEng   =  1.80519355e+02 TotEng   = -1.36150243e+03
v_Jx     = -1.53831569e-04 v_Jy     =  7.18946779e-02 v_Jz     = -3.49099104e-02
PotEng   = -1.53666575e+03 KinEng   =  1.75152090e+02 TotEng   = -1.36151366e+03
v_Jx     =  1.05514128e-02 v_Jy     = -2.00421926e-02 v_Jz     = -3.36427401e-02
PotEng   = -1.53974785e+03 KinEng   =  1.78203682e+02 TotEng   = -1.36154417e+03
v_Jx     =  5.78401963e-02 v_Jy     =  1.49581603e-03 v_Jz     = -8.14937741e-03
PotEng   = -1.54692835e+03 KinEng   =  1.85408925e+02 TotEng   = -1.36151943e+03
v_Jx     =  5.54266825e-02 v_Jy     = -3.38015980e-02 v_Jz     = -1.27595082e-02
PotEng   = -1.54539802e+03 KinEng   =  1.83884349e+02 TotEng   = -1.36151367e+03
v_Jx     =  9.84385447e-03 v_Jy     =  8.00983195e-03 v_Jz     =  3.78627314e-02
PotEng   = -1.53765673e+03 KinEng   =  1.76141912e+02 TotEng   = -1.36151482e+03
v_Jx     =  7.33771044e-04 v_Jy     =  4.17882062e-02 v_Jz     =  1.84198948e-04
PotEng   = -1.53973839e+03 KinEng   =  1.78248012e+02 TotEng   = -1.36149037e+03
v_Jx     = -6.02986344e-02 v_Jy     =  1.06200562e-02 v_Jz     = -3.02467661e-02
PotEng   = -1.54495391e+03 KinEng   =  1.83451568e+02 TotEng   = -1.36150234e+03
v_Jx     = -3.13629726e-02 v_Jy     =  8.64154136e-03 v_Jz     =  2.69932558e-02
PotEng   = -1.54444310e+03 KinEng   =  1.82924220e+02 TotEng   = -1.36151888e+03
v_Jx     = -4.22925306e-02 v_Jy     = -1.44074972e-03 v_Jz     =  5.37086217e-02
PotEng   = -1.54039965e+03 KinEng   =  1.78863520e+02 TotEng   = -1.36153613e+03
v_Jx     =  4.10446700e-03 v_Jy     =  5.47967975e-02 v_Jz     = -1.26341550e-01
PotEng   = -1.54008315e+03 KinEng   =  1.78582557e+02 TotEng   = -1.36150060e+03
v_Jx     =  2.28493239e-02 v_Jy     = -4.24264491e-02 v_Jz     = -7.21772927e-02
PotEng   = -1.54354574e+03 KinEng   =  1.82031892e+02 TotEng   = -1.36151384e+03
v_Jx     = -1.73885079e-02 v_Jy     =  9.42326334e-02 v_Jz     =  7.66686656e-02
PotEng   = -1.54120152e+03 KinEng   =  1.79690814e+02 TotEng   = -1.36151070e+03
v_Jx     =  4.57402556e-03 v_Jy     =  4.69118091e-02 v_Jz     = -6.87220866e-02
PotEng   = -1.54215528e+03 KinEng   =  1.80651154e+02 TotEng   = -1.36150413e+03
v_Jx     = -2.60664481e-02 v_Jy     =  5.99673817e-02 v_Jz     = -5.96161341e-02
PotEng   = -1.54196697e+03 KinEng   =  1.80453780e+02 TotEng   = -1.36151319e+03
v_Jx     = -3.00173553e-02 v_Jy     =  6.91631152e-03 v_Jz     =  3.74956953e-02
PotEng   = -1.54265539e+03 KinEng   =  1.81115778e+02 TotEng   = -1.36153961e+03
v_Jx     =  6.83194591e-03 v_Jy     = -5.49285525e-02 v_Jz     = -2.23303737e-02
PotEng   = -1.54548148e+03 KinEng   =  1.83970546e+02 TotEng   = -1.36151093e+03
v_Jx     = -1.67183164e-02 v_Jy     = -2.48770581e-02 v_Jz     = -7.63944975e-02
PotEng   = -1.54010581e+03 KinEng   =  1.78580431e+02 TotEng   = -1.36152538e+03
v_Jx     = -6.31606753e-02 v_Jy     =  3.67973872e-02 v_Jz     =  2.21077716e-02
PotEng   = -1.54408627e+03 KinEng   =  1.82583113e+02 TotEng   = -1.36150316e+03
v_Jx     =  3.62369532e-02 v_Jy     =  4.86684775e-02 v_Jz     = -9.42535605e-02
PotEng   = -1.54547822e+03 KinEng   =  1.83980045e+02 TotEng   = -1.36149817e+03
v_Jx     = -2.08513394e-02 v_Jy     = -6.71182265e-02 v_Jz     =  9.98923725e-02
PotEng   = -1.53849172e+03 KinEng   =  1.76977845e+02 TotEng   = -1.36151387e+03
v_Jx     = -8.99517416e-02 v_Jy     = -1.59770925e-03 v_Jz     = -3.78832657e-02
PotEng   = -1.54291073e+03 KinEng   =  1.81410660e+02 TotEng   = -1.36150007e+03
v_Jx     = -3.65238740e-03 v_Jy     = -9.24443015e-02 v_Jz     = -7.35825733e-03
PotEng   = -1.54082048e+03 KinEng   =  1.79330775e+02 TotEng   = -1.36148971e+03
v_Jx     = -3.51418922e-02 v_Jy     =  1.75455405e-02 v_Jz     =  1.66186641e-02
PotEng   = -1.53894240e+03 KinEng   =  1.77452345e+02 TotEng   = -1.36149005e+03
v_Jx     = -2.84392671e-02 v_Jy     =  3.46619790e-04 v_Jz     = -2.77112006e-02
PotEng   = -1.53574106e+03 KinEng   =  1.74225496e+02 TotEng   = -1.36151556e+03
v_Jx     =  3.96385089e-03 v_Jy     =  1.11401376e-02 v_Jz     =  1.77490177e-01
PotEng   = -1.54619813e+03 KinEng   =  1.84684337e+02 TotEng   = -1.36151379e+03
v_Jx     =  7.29878202e-02 v_Jy     = -1.70035731e-02 v_Jz     =  1.43346830e-03
PotEng   = -1.53745642e+03 KinEng   =  1.75951201e+02 TotEng   = -1.36150522e+03
v_Jx     =  5.04063130e-03 v_Jy     =  5.02095020e-02 v_Jz     = -4.07317075e-02
PotEng   = -1.54849237e+03 KinEng   =  1.86960080e+02 TotEng   = -1.36153229e+03
v_Jx     =  1.08181094e-01 v_Jy     = -3.64869874e-02 v_Jz     = -1.69885412e-02
PotEng   = -1.54136095e+03 KinEng   =  1.79857344e+02 TotEng   = -1.36150360e+03
v_Jx     = -3.44206673e-02 v_Jy     = -1.05385544e-01 v_Jz     =  1.27482070e-02
PotEng   = -1.53445211e+03 KinEng   =  1.72917163e+02 TotEng   = -1.36153495e+03
v_Jx     = -4.02285080e-02 v_Jy     =  3.04240804e-02 v_Jz     = -1.84366455e-02
PotEng   = -1.54105530e+03 KinEng   =  1.79522909e+02 TotEng   = -1.36153239e+03
v_Jx     =  2.57170857e-02 v_Jy     = -5.97651539e-02 v_Jz     =  3.62877125e-02
PotEng   = -1.54216242e+03 KinEng   =  1.80688908e+02 TotEng   = -1.36147351e+03
v_Jx     = -1.72180832e-02 v_Jy     =  1.65527983e-02 v_Jz     =  7.32129405e-02
PotEng   = -1.55000896e+03 KinEng   =  1.88492285e+02 TotEng   = -1.36151667e+03
v_Jx     =  5.15217010e-02 v_Jy     =  4.38543334e-02 v_Jz     =  9.07599040e-02
PotEng   = -1.53977729e+03 KinEng   =  1.78274055e+02 TotEng   = -1.36150324e+03
v_Jx     =  2.57748940e-02 v_Jy     = -7.09987824e-02 v_Jz     = -1.19407147e-02
PotEng   = -1.54303169e+03 KinEng   =  1.81521968e+02 TotEng   = -1.36150973e+03
v_Jx     =  1.59843710e-02 v_Jy     = -4.86438195e-02 v_Jz     = -7.09087625e-03
PotEng   = -1.54236451e+03 KinEng   =  1.80820688e+02 TotEng   = -1.36154382e+03
v_Jx     = -1.21308618e-02 v_Jy     = -1.10158096e-03 v_Jz     = -6.71287370e-02
PotEng   = -1.54675989e+03 KinEng   =  1.85220679e+02 TotEng   = -1.36153921e+03
v_Jx     =  1.19658029e-02 v_Jy     =  2.86217302e-02 v_Jz     =  6.17269658e-02
PotEng   = -1.54272879e+03 KinEng   =  1.81235537e+02 TotEng   = -1.36149325e+03
v_Jx     = -1.38051943e-02 v_Jy     =  1.83782358e-02 v_Jz     = -3.16187601e-02
PotEng   = -1.53977673e+03 KinEng   =  1.78297696e+02 TotEng   = -1.36147904e+03
v_Jx     =  4.56427677e-02 v_Jy     = -2.96079166e-02 v_Jz     =  2.34480717e-02
PotEng   = -1.54390975e+03 KinEng   =  1.82421020e+02 TotEng   = -1.36148873e+03
v_Jx     =  3.26041849e-02 v_Jy     = -6.42380622e-02 v_Jz     = -6.59777484e-02
PotEng   = -1.54636576e+03 KinEng   =  1.84876260e+02 TotEng   = -1.36148950e+03
v_Jx     = -1.39878224e-02 v_Jy     = -6.62802365e-02 v_Jz     = -5.36976767e-02
PotEng   = -1.54188056e+03 KinEng   =  1.80398696e+02 TotEng   = -1.36148187e+03
v_Jx     = -4.84078630e-02 v_Jy     = -9.34715731e-03 v_Jz     =  2.68032536e-02
PotEng   = -1.54362857e+03 KinEng   =  1.82125005e+02 TotEng   = -1.36150356e+03
v_Jx     =  1.80979573e-03 v_Jy     = -2.77047162e-02 v_Jz     =  1.65320457e-03
PotEng   = -1.54086681e+03 KinEng   =  1.79363469e+02 TotEng   = -1.36150334e+03
v_Jx     =  9.07889990e-03 v_Jy     =  7.80450098e-02 v_Jz     = -1.73860292e-01
PotEng   = -1.54441896e+03 KinEng   =  1.82928814e+02 TotEng   = -1.36149015e+03
v_Jx     = -4.85369790e-02 v_Jy     =  4.79755886e-02 v_Jz     = -5.75438246e-02
PotEng   = -1.53654183e+03 KinEng   =  1.75039374e+02 TotEng   = -1.36150246e+03
v_Jx     = -5.94806725e-02 v_Jy     =  3.89597500e-02 v_Jz     =  1.17835562e-01
PotEng   = -1.54769811e+03 KinEng   =  1.86197882e+02 TotEng   = -1.36150022e+03
v_Jx     = -1.83469861e-02 v_Jy     =  1.81821400e-01 v_Jz     =  5.74340875e-02
PotEng   = -1.54119283e+03 KinEng   =  1.79656954e+02 TotEng   = -1.36153588e+03
v_Jx     =  4.71271740e-02 v_Jy     =  2.51359862e-02 v_Jz     =  6.50415676e-02
PotEng   = -1.54511666e+03 KinEng   =  1.83596787e+02 TotEng   = -1.36151988e+03
v_Jx     = -1.58190236e-02 v_Jy     = -5.92144267e-02 v_Jz     =  8.31410076e-02
PotEng   = -1.54895841e+03 KinEng   =  1.87441328e+02 TotEng   = -1.36151708e+03
v_Jx     =  1.93114119e-02 v_Jy     = -7.78714352e-02 v_Jz     =  1.01933629e-02
PotEng   = -1.54383093e+03 KinEng   =  1.82306959e+02 TotEng   = -1.36152397e+03
v_Jx     = -4.24603517e-02 v_Jy     = -3.32486457e-02 v_Jz     = -9.10583335e-04
PotEng   = -1.54345328e+03 KinEng   =  1.81958761e+02 TotEng   = -1.36149452e+03
v_Jx     = -2.90836504e-02 v_Jy     = -1.89279484e-02 v_Jz     =  2.85354838e-02
PotEng   = -1.53996199e+03 KinEng   =  1.78445213e+02 TotEng   = -1.36151678e+03
v_Jx     =  4.84880192e-02 v_Jy     = -1.63742011e-03 v_Jz     =  6.61903774e-02
PotEng   = -1.53804389e+03 KinEng   =  1.76517980e+02 TotEng   = -1.36152591e+03
v_Jx     = -1.02441634e-02 v_Jy     =  6.66272600e-02 v_Jz     =  7.37314203e-02
PotEng   = -1.55132787e+03 KinEng   =  1.89836696e+02 TotEng   = -1.36149117e+03
v_Jx     =  6.10537546e-02 v_Jy     = -6.20139186e-02 v_Jz     = -3.60326401e-02
PotEng   = -1.54149476e+03 KinEng   =  1.79978363e+02 TotEng   = -1.36151640e+03
v_Jx     = -1.41704797e-02 v_Jy     =  2.93770471e-02 v_Jz     =  3.63460690e-03
Loop time of 23.5925 on 24 procs for 100000 steps with 864 atoms

#run 25000
unfix center
unfix 1
unfix 2
write_restart restart.ar_fcc.nve
undump 2

variable v equal vol
Simulation done with volume: 33560.740233216
print "All done"
All done
