# neighbour list search related settings
neighbor	1.0 bin
neigh_modify	every 10 one 10000

# read geometry
read_restart restarts/restart.ice_Ih668.eq.98
  restoring atom style full from restart
  triclinic box = (0 0 0) to (26.392 22.8561 57.348) with tilt (-13.196 0 0)
  restoring pair style lj/cut/tip4p/long from restart
  restoring bond style harmonic from restart
  restoring angle style harmonic from restart
  3456 atoms
  2304 bonds
  1152 angles
  read_restart CPU = 0.00229096 secs
include forcefield.ice_Ih668
# This forcefield file sets a 13-Angstrom cutoff, recommended for liquid-
# vapor simulations [Vega & de Miguel, J Chem Phys 126:154707 (2007),
# Vega et al, Faraday Discuss 141:251 (2009)]
# Note that the original TIP4P/2005 model was run with an 8.5 Angstrom
# cutoff [Abascal & Vega, J Chem Phys 123:234505 (2005)].
# Charges and geometry are specified in the "data." file.

mass 1 1.00794 # H
mass 2 15.9994 # O

pair_style lj/cut/tip4p/long 2 1 1 1 0.1546 9.0 #otype htype btype atype rOM cutoff
# style tip4p/long is for use with a long-range Coulombic solver (Ewald or PPPM)
pair_modify tail yes
kspace_style pppm/tip4p 1.0e-5 #desired relative error in forces

#pair_style lj/cut/coul/cut 9.0

pair_coeff 1 1 0.0 0.0
pair_coeff 1 2 0.0 0.0
pair_coeff 2 2 0.18520 3.1589 #epsilon and sigma of O-O

bond_style harmonic
bond_coeff 1 10000.0 0.9572 #coefficiet for harmonic bond, k=0, bond length=0.9572

angle_style harmonic
angle_coeff 1 10000.0 104.52 #coeffiecient for harmonic angle, k=0

# time step and output frequency
# thermo_style custom time temp pe ke etotal
thermo_style	one
thermo          1000
variable dt equal 2.0
variable T equal 175.0
timestep	2

seed1 = 3274
seed2 = 35808
nname = ice_Ih668.eq.98

######################################################
## Equilibration (Langevin dynamics)
## assign initial velocity
## Langevin thermostat, limited step size to 0.1
#fix		1 all nve
## Tstart Tend damp seed
#fix     0 all recenter INIT INIT INIT
#dump        1 all dcd 1000 eq.dcd
## 20ps equibliration
#run		20000
#unfix 0
#unfix 1
#unfix 2
#undump 1

####################################################
# NVT equilibration
velocity 	all create 175 3274 mom yes rot yes dist gaussian
fix constrain all shake 1.0e-4 100 0 b 1 a 1
  find clusters CPU = 0.000362158 secs
fix         NVT all nvt temp $T $T 100.0
fix         NVT all nvt temp 175 $T 100.0
fix         NVT all nvt temp 175 175 100.0
fix center all recenter INIT INIT INIT
dump        1 all dcd 1000 eq.dcd
run         10000
PPPM initialization ...
  extracting TIP4P info from pair style
  G vector (1/distance) = 0.350564
  grid = 30 45 54
  stencil order = 5
  estimated absolute RMS force accuracy = 0.00290786
  estimated relative force accuracy = 8.75692e-06
  3d grid and FFT values/proc = 10560 4050
Unused restart file global fix info:
  fix style: nvt, fix ID: 1
  update every 10 steps, delay 10 steps, check yes
Step Temp E_pair E_mol TotEng Press
10000    262.53799   -15931.522            0   -14129.249    9443.0493
Averages over the last 6 of 11 rows, steps 15000 to 20000:
Temp E_pair E_mol TotEng Press
174.147 -15916.3 0 -14720.8 8262.3
Loop time of 33.1468 on 24 procs for 10000 steps with 3456 atoms

unfix       NVT
undump      1

#####################################################
# Define Settings
compute perke all ke/atom
compute perpe all pe/atom
compute perstress all stress/atom NULL virial
compute flux all heat/flux perke perpe perstress
# normalize J vector using volume of the box
# see https://lammps.sandia.gov/doc/compute_heat_flux.html
variable     Jx equal c_flux[1] #/vol
variable     Jy equal c_flux[2] #/vol
variable     Jz equal c_flux[3] #/vol

######################################################
# production run with NVE
# reset time step 0.5 fs
timestep 2
# reset time
reset_timestep 0
thermo_style custom step time temp pe ke etotal v_Jx v_Jy v_Jz
thermo_modify line multi format float %15.8e
thermo 1000
fix 1 all nve
fix 2 all ave/correlate 1 5000 10000 c_flux[1] c_flux[2] c_flux[3] type auto file corr.data ave running
dump 		2 all dcd 1000 nve.dcd
run 100000 # 400 ps
PPPM initialization ...
  extracting TIP4P info from pair style
  G vector (1/distance) = 0.350564
  grid = 30 45 54
  stencil order = 5
  estimated absolute RMS force accuracy = 0.00290786
  estimated relative force accuracy = 8.75692e-06
  3d grid and FFT values/proc = 10560 4050
Step     =              0 Time     =  2.00000000e+04 Temp     =  1.74465004e+02
PotEng   = -1.58950596e+04 KinEng   =  1.19766833e+03 TotEng   = -1.46973912e+04
v_Jx     =  5.74812714e+00 v_Jy     =  5.30878474e+00 v_Jz     = -6.13776579e+00
Step     =           1000 Time     =  2.20000000e+04 Temp     =  1.76025149e+02
PotEng   = -1.59052680e+04 KinEng   =  1.20837842e+03 TotEng   = -1.46968895e+04
v_Jx     =  6.91883228e+00 v_Jy     = -3.64134230e+00 v_Jz     =  3.55304081e+00
Step     =           2000 Time     =  2.40000000e+04 Temp     =  1.74069235e+02
PotEng   = -1.58919663e+04 KinEng   =  1.19495145e+03 TotEng   = -1.46970149e+04
v_Jx     = -5.96164579e-01 v_Jy     = -5.27890647e+00 v_Jz     = -5.37071370e-01
Step     =           3000 Time     =  2.60000000e+04 Temp     =  1.79560081e+02
PotEng   = -1.59298399e+04 KinEng   =  1.23264504e+03 TotEng   = -1.46971949e+04
v_Jx     =  2.24412191e-01 v_Jy     =  1.21437042e-01 v_Jz     = -6.49520703e+00
Step     =           4000 Time     =  2.80000000e+04 Temp     =  1.73909652e+02
PotEng   = -1.58905434e+04 KinEng   =  1.19385594e+03 TotEng   = -1.46966874e+04
v_Jx     = -1.07778282e+01 v_Jy     =  4.33090208e+00 v_Jz     =  4.33877921e+00
Step     =           5000 Time     =  3.00000000e+04 Temp     =  1.79625546e+02
PotEng   = -1.59299795e+04 KinEng   =  1.23309444e+03 TotEng   = -1.46968851e+04
v_Jx     =  4.81632244e+00 v_Jy     =  1.55185862e+00 v_Jz     =  1.91879531e+00
Step     =           6000 Time     =  3.20000000e+04 Temp     =  1.80002430e+02
PotEng   = -1.59330448e+04 KinEng   =  1.23568168e+03 TotEng   = -1.46973631e+04
v_Jx     = -9.97523355e-02 v_Jy     = -8.50031633e-01 v_Jz     =  2.63813671e+00
Step     =           7000 Time     =  3.40000000e+04 Temp     =  1.81258913e+02
PotEng   = -1.59419452e+04 KinEng   =  1.24430719e+03 TotEng   = -1.46976380e+04
v_Jx     = -5.16945479e+00 v_Jy     = -9.26636319e-01 v_Jz     =  2.90079756e+00
Step     =           8000 Time     =  3.60000000e+04 Temp     =  1.74644554e+02
PotEng   = -1.58957969e+04 KinEng   =  1.19890091e+03 TotEng   = -1.46968960e+04
v_Jx     = -3.33431619e+00 v_Jy     =  2.57140232e+00 v_Jz     =  2.14711836e+00
Step     =           9000 Time     =  3.80000000e+04 Temp     =  1.76202736e+02
PotEng   = -1.59064519e+04 KinEng   =  1.20959752e+03 TotEng   = -1.46968544e+04
v_Jx     = -6.11805995e+00 v_Jy     = -2.47125253e+00 v_Jz     = -3.88706719e+00
Step     =          10000 Time     =  4.00000000e+04 Temp     =  1.78381186e+02
PotEng   = -1.59217883e+04 KinEng   =  1.22455216e+03 TotEng   = -1.46972362e+04
v_Jx     =  1.19337750e+00 v_Jy     = -2.10364859e+00 v_Jz     =  2.65951004e+00
Step     =          11000 Time     =  4.20000000e+04 Temp     =  1.76349369e+02
PotEng   = -1.59072465e+04 KinEng   =  1.21060412e+03 TotEng   = -1.46966424e+04
v_Jx     =  2.17013978e+00 v_Jy     = -5.29873541e+00 v_Jz     = -4.14591336e+00
Step     =          12000 Time     =  4.40000000e+04 Temp     =  1.76342372e+02
PotEng   = -1.59075260e+04 KinEng   =  1.21055609e+03 TotEng   = -1.46969699e+04
v_Jx     =  6.96176940e+00 v_Jy     =  5.47339808e+00 v_Jz     = -5.93027544e-01
Step     =          13000 Time     =  4.60000000e+04 Temp     =  1.75043494e+02
PotEng   = -1.58982234e+04 KinEng   =  1.20163955e+03 TotEng   = -1.46965838e+04
v_Jx     =  1.67811799e+00 v_Jy     = -1.84443703e+00 v_Jz     =  9.20324569e+00
Step     =          14000 Time     =  4.80000000e+04 Temp     =  1.80416405e+02
PotEng   = -1.59360184e+04 KinEng   =  1.23852354e+03 TotEng   = -1.46974948e+04
v_Jx     = -9.12116548e+00 v_Jy     =  5.33733605e-01 v_Jz     =  3.76874412e+00
Step     =          15000 Time     =  5.00000000e+04 Temp     =  1.75487521e+02
PotEng   = -1.59015555e+04 KinEng   =  1.20468771e+03 TotEng   = -1.46968678e+04
v_Jx     = -6.34144959e+00 v_Jy     = -5.77528057e+00 v_Jz     =  5.42933330e+00
Step     =          16000 Time     =  5.20000000e+04 Temp     =  1.76796797e+02
PotEng   = -1.59105610e+04 KinEng   =  1.21367563e+03 TotEng   = -1.46968854e+04
v_Jx     =  5.61196567e+00 v_Jy     =  1.83849062e+00 v_Jz     =  3.61196443e-01
Step     =          17000 Time     =  5.40000000e+04 Temp     =  1.78518565e+02
PotEng   = -1.59219472e+04 KinEng   =  1.22549524e+03 TotEng   = -1.46964520e+04
v_Jx     = -7.20356263e+00 v_Jy     =  2.76095976e+00 v_Jz     = -3.73720672e+00
Step     =          18000 Time     =  5.60000000e+04 Temp     =  1.78871653e+02
PotEng   = -1.59251554e+04 KinEng   =  1.22791912e+03 TotEng   = -1.46972363e+04
v_Jx     =  3.92555402e+00 v_Jy     = -1.03323998e+00 v_Jz     = -1.87349788e+00
Step     =          19000 Time     =  5.80000000e+04 Temp     =  1.80953784e+02
PotEng   = -1.59391879e+04 KinEng   =  1.24221254e+03 TotEng   = -1.46969754e+04
v_Jx     = -5.24714868e+00 v_Jy     =  8.79740945e+00 v_Jz     =  1.10659721e+00
Step     =          20000 Time     =  6.00000000e+04 Temp     =  1.75438110e+02
PotEng   = -1.59011319e+04 KinEng   =  1.20434851e+03 TotEng   = -1.46967834e+04
v_Jx     = -1.92207234e+00 v_Jy     =  4.75104153e+00 v_Jz     = -5.21059055e+00
Step     =          21000 Time     =  6.20000000e+04 Temp     =  1.81055121e+02
PotEng   = -1.59397581e+04 KinEng   =  1.24290820e+03 TotEng   = -1.46968499e+04
v_Jx     =  6.48408683e+00 v_Jy     = -1.92353681e+00 v_Jz     = -1.33070407e+00
Step     =          22000 Time     =  6.40000000e+04 Temp     =  1.75495525e+02
PotEng   = -1.59010667e+04 KinEng   =  1.20474265e+03 TotEng   = -1.46963240e+04
v_Jx     = -9.58987886e+00 v_Jy     = -8.57212739e-01 v_Jz     = -2.38349168e+00
Step     =          23000 Time     =  6.60000000e+04 Temp     =  1.79601267e+02
PotEng   = -1.59299876e+04 KinEng   =  1.23292778e+03 TotEng   = -1.46970598e+04
v_Jx     =  7.54452819e+00 v_Jy     =  3.52911811e+00 v_Jz     = -3.61512483e+00
Step     =          24000 Time     =  6.80000000e+04 Temp     =  1.74916475e+02
PotEng   = -1.58975168e+04 KinEng   =  1.20076759e+03 TotEng   = -1.46967492e+04
v_Jx     = -2.10303374e+00 v_Jy     = -1.75895341e+00 v_Jz     = -2.29349858e+00
Step     =          25000 Time     =  7.00000000e+04 Temp     =  1.76773814e+02
PotEng   = -1.59100419e+04 KinEng   =  1.21351786e+03 TotEng   = -1.46965241e+04
v_Jx     = -6.40151251e+00 v_Jy     =  3.87215457e+00 v_Jz     = -1.03371684e+01
Step     =          26000 Time     =  7.20000000e+04 Temp     =  1.78717052e+02
PotEng   = -1.59236808e+04 KinEng   =  1.22685781e+03 TotEng   = -1.46968230e+04
v_Jx     =  2.85660988e+00 v_Jy     = -3.37710848e+00 v_Jz     =  1.35104872e+00
Step     =          27000 Time     =  7.40000000e+04 Temp     =  1.81101750e+02
PotEng   = -1.59402636e+04 KinEng   =  1.24322830e+03 TotEng   = -1.46970353e+04
v_Jx     =  1.05586871e+00 v_Jy     = -1.84972117e-01 v_Jz     = -9.82168744e-01
Step     =          28000 Time     =  7.60000000e+04 Temp     =  1.74844761e+02
PotEng   = -1.58970886e+04 KinEng   =  1.20027529e+03 TotEng   = -1.46968134e+04
v_Jx     =  6.35734685e+00 v_Jy     = -6.57796256e+00 v_Jz     =  4.52785665e+00
Step     =          29000 Time     =  7.80000000e+04 Temp     =  1.73521623e+02
PotEng   = -1.58874751e+04 KinEng   =  1.19119220e+03 TotEng   = -1.46962829e+04
v_Jx     =  4.59216679e+00 v_Jy     = -3.37182516e-01 v_Jz     = -8.57085768e+00
Step     =          30000 Time     =  8.00000000e+04 Temp     =  1.74894169e+02
PotEng   = -1.58971379e+04 KinEng   =  1.20061446e+03 TotEng   = -1.46965234e+04
v_Jx     = -1.35657297e+01 v_Jy     = -6.50131422e+00 v_Jz     = -3.11402207e+00
Step     =          31000 Time     =  8.20000000e+04 Temp     =  1.76197475e+02
PotEng   = -1.59062313e+04 KinEng   =  1.20956140e+03 TotEng   = -1.46966699e+04
v_Jx     = -1.00189914e+01 v_Jy     = -5.84837453e+00 v_Jz     =  3.79476027e-01
Step     =          32000 Time     =  8.40000000e+04 Temp     =  1.75816190e+02
PotEng   = -1.59032928e+04 KinEng   =  1.20694396e+03 TotEng   = -1.46963488e+04
v_Jx     =  9.80847767e+00 v_Jy     = -5.77987583e+00 v_Jz     =  9.90685656e+00
Step     =          33000 Time     =  8.60000000e+04 Temp     =  1.73513058e+02
PotEng   = -1.58876895e+04 KinEng   =  1.19113340e+03 TotEng   = -1.46965561e+04
v_Jx     = -3.45084327e+00 v_Jy     = -3.32779463e+00 v_Jz     = -2.82394090e+00
Step     =          34000 Time     =  8.80000000e+04 Temp     =  1.78974520e+02
PotEng   = -1.59251193e+04 KinEng   =  1.22862527e+03 TotEng   = -1.46964940e+04
v_Jx     =  3.30490585e+00 v_Jy     =  4.52460636e+00 v_Jz     =  2.05157903e-01
Step     =          35000 Time     =  9.00000000e+04 Temp     =  1.79434495e+02
PotEng   = -1.59285275e+04 KinEng   =  1.23178292e+03 TotEng   = -1.46967446e+04
v_Jx     = -4.31389489e+00 v_Jy     = -1.29371719e+00 v_Jz     = -1.66278490e+00
Step     =          36000 Time     =  9.20000000e+04 Temp     =  1.81093129e+02
PotEng   = -1.59401763e+04 KinEng   =  1.24316911e+03 TotEng   = -1.46970072e+04
v_Jx     = -8.05216327e+00 v_Jy     =  1.57435034e+00 v_Jz     =  2.85142323e+00
Step     =          37000 Time     =  9.40000000e+04 Temp     =  1.76930782e+02
PotEng   = -1.59107323e+04 KinEng   =  1.21459541e+03 TotEng   = -1.46961369e+04
v_Jx     = -1.79717184e+00 v_Jy     = -1.49309910e+00 v_Jz     = -1.60581932e+00
Step     =          38000 Time     =  9.60000000e+04 Temp     =  1.75584424e+02
PotEng   = -1.59016723e+04 KinEng   =  1.20535292e+03 TotEng   = -1.46963194e+04
v_Jx     =  2.89512222e+00 v_Jy     =  4.69236562e-01 v_Jz     = -3.61165374e+00
PotEng   = -1.58987947e+04 KinEng   =  1.20290807e+03 TotEng   = -1.46958866e+04
v_Jx     = -2.36126001e+00 v_Jy     = -2.34832280e+00 v_Jz     =  2.82245056e+00
PotEng   = -1.59134859e+04 KinEng   =  1.21694804e+03 TotEng   = -1.46965379e+04
v_Jx     =  2.93038541e+00 v_Jy     =  6.49301357e-01 v_Jz     =  2.88678986e-01
PotEng   = -1.58936880e+04 KinEng   =  1.19764547e+03 TotEng   = -1.46960425e+04
v_Jx     = -6.98080507e+00 v_Jy     = -4.34862883e+00 v_Jz     = -6.70489067e+00
PotEng   = -1.59180349e+04 KinEng   =  1.22127793e+03 TotEng   = -1.46967569e+04
v_Jx     = -1.84032103e+01 v_Jy     = -3.32212998e+00 v_Jz     = -2.35207984e+00
PotEng   = -1.59054514e+04 KinEng   =  1.20894279e+03 TotEng   = -1.46965087e+04
v_Jx     =  7.82145548e+00 v_Jy     =  2.15938540e+00 v_Jz     =  1.48865941e+00
PotEng   = -1.59305618e+04 KinEng   =  1.23424024e+03 TotEng   = -1.46963216e+04
v_Jx     = -7.33132341e+00 v_Jy     =  1.99931143e+00 v_Jz     =  7.80332941e-01
PotEng   = -1.59265333e+04 KinEng   =  1.23015922e+03 TotEng   = -1.46963741e+04
v_Jx     =  4.73624645e+00 v_Jy     =  3.84561249e+00 v_Jz     = -6.12051979e+00
PotEng   = -1.59029185e+04 KinEng   =  1.20671314e+03 TotEng   = -1.46962054e+04
v_Jx     = -1.05735259e+01 v_Jy     = -3.79558082e+00 v_Jz     = -2.88721964e-01
PotEng   = -1.59180264e+04 KinEng   =  1.22192452e+03 TotEng   = -1.46961019e+04
v_Jx     = -9.02300135e+00 v_Jy     =  5.74769478e+00 v_Jz     =  7.09511283e+00
PotEng   = -1.58966758e+04 KinEng   =  1.20095193e+03 TotEng   = -1.46957239e+04
v_Jx     =  4.40238365e+00 v_Jy     = -7.24878463e+00 v_Jz     = -1.84917783e-01
PotEng   = -1.59096891e+04 KinEng   =  1.21338589e+03 TotEng   = -1.46963032e+04
v_Jx     =  1.59153803e+01 v_Jy     = -1.84584874e+00 v_Jz     = -2.60343213e+00
PotEng   = -1.59257373e+04 KinEng   =  1.22933274e+03 TotEng   = -1.46964046e+04
v_Jx     =  3.99468172e+00 v_Jy     =  6.21586690e+00 v_Jz     =  3.53934888e+00
PotEng   = -1.59126741e+04 KinEng   =  1.21635602e+03 TotEng   = -1.46963181e+04
v_Jx     =  6.84668303e+00 v_Jy     = -7.34620374e+00 v_Jz     = -3.22140990e+00
PotEng   = -1.58911721e+04 KinEng   =  1.19547292e+03 TotEng   = -1.46956992e+04
v_Jx     = -2.72842866e+00 v_Jy     =  8.06828950e+00 v_Jz     = -2.55174029e+00
PotEng   = -1.59238056e+04 KinEng   =  1.22769143e+03 TotEng   = -1.46961141e+04
v_Jx     =  7.34455357e+00 v_Jy     =  5.96867611e-01 v_Jz     = -5.91625526e+00
PotEng   = -1.59141993e+04 KinEng   =  1.21797696e+03 TotEng   = -1.46962223e+04
v_Jx     =  3.80511841e+00 v_Jy     = -2.59732225e+00 v_Jz     = -5.84019231e-01
PotEng   = -1.59230317e+04 KinEng   =  1.22676514e+03 TotEng   = -1.46962666e+04
v_Jx     = -2.60137771e+00 v_Jy     =  2.65566432e+00 v_Jz     = -1.54621579e+00
PotEng   = -1.59140798e+04 KinEng   =  1.21810500e+03 TotEng   = -1.46959748e+04
v_Jx     = -6.80687516e+00 v_Jy     = -1.35466617e+00 v_Jz     = -6.17184404e+00
PotEng   = -1.58873851e+04 KinEng   =  1.19171840e+03 TotEng   = -1.46956667e+04
v_Jx     =  3.91229800e+00 v_Jy     =  8.58544869e+00 v_Jz     = -1.44588462e+00
PotEng   = -1.58915225e+04 KinEng   =  1.19549782e+03 TotEng   = -1.46960247e+04
v_Jx     =  5.40409266e+00 v_Jy     =  1.51984050e+00 v_Jz     = -3.88799070e-01
PotEng   = -1.59071550e+04 KinEng   =  1.21085152e+03 TotEng   = -1.46963035e+04
v_Jx     =  1.78713121e+00 v_Jy     =  6.11708726e+00 v_Jz     = -8.07144395e+00
PotEng   = -1.59117301e+04 KinEng   =  1.21580280e+03 TotEng   = -1.46959273e+04
v_Jx     = -3.75644933e+00 v_Jy     = -3.24274033e+00 v_Jz     =  3.76666714e+00
PotEng   = -1.59098746e+04 KinEng   =  1.21387081e+03 TotEng   = -1.46960037e+04
v_Jx     = -6.28875623e+00 v_Jy     = -6.20996305e+00 v_Jz     = -8.49068696e+00
PotEng   = -1.59338625e+04 KinEng   =  1.23758101e+03 TotEng   = -1.46962815e+04
v_Jx     = -1.62520563e+00 v_Jy     = -1.03359818e+00 v_Jz     =  2.99781551e+00
PotEng   = -1.59047622e+04 KinEng   =  1.20904514e+03 TotEng   = -1.46957171e+04
v_Jx     = -4.27967663e+00 v_Jy     = -3.15281044e+00 v_Jz     = -4.06605082e+00
PotEng   = -1.59476334e+04 KinEng   =  1.25139114e+03 TotEng   = -1.46962422e+04
v_Jx     =  9.60585709e+00 v_Jy     =  4.34177785e+00 v_Jz     =  6.30012547e+00
PotEng   = -1.58972357e+04 KinEng   =  1.20166070e+03 TotEng   = -1.46955750e+04
v_Jx     = -1.19355322e+00 v_Jy     =  5.10930912e+00 v_Jz     = -4.26025557e-01
PotEng   = -1.59202330e+04 KinEng   =  1.22438958e+03 TotEng   = -1.46958434e+04
v_Jx     = -7.17437528e-01 v_Jy     =  9.03441712e-01 v_Jz     = -4.34968391e+00
PotEng   = -1.59002457e+04 KinEng   =  1.20476572e+03 TotEng   = -1.46954800e+04
v_Jx     =  2.85470185e+00 v_Jy     = -8.90414341e-01 v_Jz     = -1.89280000e+00
PotEng   = -1.59137147e+04 KinEng   =  1.21789005e+03 TotEng   = -1.46958246e+04
v_Jx     = -9.10677542e+00 v_Jy     = -2.36007183e+00 v_Jz     = -5.33908125e+00
PotEng   = -1.59120632e+04 KinEng   =  1.21643697e+03 TotEng   = -1.46956262e+04
v_Jx     =  7.58821397e-01 v_Jy     =  3.52117617e-01 v_Jz     =  3.45789468e+00
PotEng   = -1.59108115e+04 KinEng   =  1.21517350e+03 TotEng   = -1.46956380e+04
v_Jx     =  9.71532827e+00 v_Jy     = -1.70164240e+00 v_Jz     =  1.49909897e+00
PotEng   = -1.59203668e+04 KinEng   =  1.22440976e+03 TotEng   = -1.46959570e+04
v_Jx     = -2.38660922e+00 v_Jy     = -4.74813508e+00 v_Jz     =  2.50678669e+00
PotEng   = -1.58963945e+04 KinEng   =  1.20080250e+03 TotEng   = -1.46955920e+04
v_Jx     = -1.68960802e+01 v_Jy     =  1.80418219e+00 v_Jz     =  8.65565471e+00
PotEng   = -1.59087795e+04 KinEng   =  1.21319887e+03 TotEng   = -1.46955807e+04
v_Jx     =  7.49015424e+00 v_Jy     = -4.45647250e+00 v_Jz     =  2.00809231e+00
PotEng   = -1.59297468e+04 KinEng   =  1.23371454e+03 TotEng   = -1.46960322e+04
v_Jx     = -3.52075881e+00 v_Jy     =  2.29309696e+00 v_Jz     = -3.86330021e+00
PotEng   = -1.58926789e+04 KinEng   =  1.19718837e+03 TotEng   = -1.46954905e+04
v_Jx     = -7.68484476e+00 v_Jy     =  2.75063292e+00 v_Jz     =  1.83080479e+01
PotEng   = -1.59379599e+04 KinEng   =  1.24225913e+03 TotEng   = -1.46957008e+04
v_Jx     =  5.02247545e+00 v_Jy     =  7.25357714e+00 v_Jz     = -4.52036050e+00
PotEng   = -1.59163736e+04 KinEng   =  1.22121791e+03 TotEng   = -1.46951557e+04
v_Jx     =  6.14558201e+00 v_Jy     =  2.95964178e+00 v_Jz     = -6.25177127e+00
PotEng   = -1.59085031e+04 KinEng   =  1.21288287e+03 TotEng   = -1.46956203e+04
v_Jx     =  8.00095477e+00 v_Jy     =  5.05336434e-01 v_Jz     = -4.32457614e+00
PotEng   = -1.59146412e+04 KinEng   =  1.21903880e+03 TotEng   = -1.46956024e+04
v_Jx     = -4.12162781e+00 v_Jy     =  6.38543496e-02 v_Jz     =  2.36165573e+00
PotEng   = -1.59269109e+04 KinEng   =  1.23139652e+03 TotEng   = -1.46955143e+04
v_Jx     = -1.17777274e+01 v_Jy     = -5.83968530e+00 v_Jz     =  1.51926341e+00
PotEng   = -1.59334315e+04 KinEng   =  1.23756150e+03 TotEng   = -1.46958700e+04
v_Jx     =  4.26522424e+00 v_Jy     =  2.94675115e+00 v_Jz     = -2.49745132e+00
PotEng   = -1.59174135e+04 KinEng   =  1.22175966e+03 TotEng   = -1.46956538e+04
v_Jx     =  3.99588005e+00 v_Jy     = -7.17896827e+00 v_Jz     = -3.21304130e+00
PotEng   = -1.59209967e+04 KinEng   =  1.22539685e+03 TotEng   = -1.46955998e+04
v_Jx     =  3.28886016e+00 v_Jy     =  1.41437527e+01 v_Jz     = -5.80856512e-02
PotEng   = -1.58859379e+04 KinEng   =  1.19062429e+03 TotEng   = -1.46953136e+04
v_Jx     = -1.12178321e+01 v_Jy     =  4.23703637e-01 v_Jz     = -4.58737715e+00
PotEng   = -1.59323122e+04 KinEng   =  1.23711507e+03 TotEng   = -1.46951971e+04
v_Jx     =  9.47702367e+00 v_Jy     = -1.71693062e+00 v_Jz     =  7.48696875e+00
PotEng   = -1.59167227e+04 KinEng   =  1.22146000e+03 TotEng   = -1.46952627e+04
v_Jx     = -4.34655734e+00 v_Jy     = -5.19660703e+00 v_Jz     =  1.26570591e+01
PotEng   = -1.59023360e+04 KinEng   =  1.20735193e+03 TotEng   = -1.46949841e+04
v_Jx     =  9.28214250e+00 v_Jy     = -1.87757554e+00 v_Jz     = -1.40642206e+00
PotEng   = -1.58926255e+04 KinEng   =  1.19729593e+03 TotEng   = -1.46953296e+04
v_Jx     =  1.23718650e+00 v_Jy     = -3.30514429e+00 v_Jz     = -8.38351945e+00
PotEng   = -1.59052584e+04 KinEng   =  1.21007980e+03 TotEng   = -1.46951786e+04
v_Jx     =  1.87237864e-01 v_Jy     = -6.70373897e-01 v_Jz     = -4.75266818e+00
PotEng   = -1.59105570e+04 KinEng   =  1.21524455e+03 TotEng   = -1.46953125e+04
v_Jx     =  3.03712963e+00 v_Jy     =  2.42198933e+00 v_Jz     =  9.97509726e+00
PotEng   = -1.59028384e+04 KinEng   =  1.20791148e+03 TotEng   = -1.46949270e+04
v_Jx     =  7.26056893e+00 v_Jy     = -2.99045880e+00 v_Jz     = -1.56771874e+00
PotEng   = -1.59174857e+04 KinEng   =  1.22201894e+03 TotEng   = -1.46954667e+04
v_Jx     =  2.66601916e+00 v_Jy     =  4.34886660e+00 v_Jz     = -8.78876406e+00
PotEng   = -1.58818070e+04 KinEng   =  1.18704761e+03 TotEng   = -1.46947594e+04
v_Jx     = -2.31942085e-01 v_Jy     =  7.06695384e-01 v_Jz     = -1.24252119e+00
PotEng   = -1.59096885e+04 KinEng   =  1.21435347e+03 TotEng   = -1.46953350e+04
v_Jx     =  1.57307910e+00 v_Jy     =  1.26037649e+01 v_Jz     = -2.12403810e+00
PotEng   = -1.58827839e+04 KinEng   =  1.18830458e+03 TotEng   = -1.46944793e+04
v_Jx     =  2.32691080e+00 v_Jy     =  6.65262045e+00 v_Jz     = -4.86212947e+00
PotEng   = -1.59108656e+04 KinEng   =  1.21577551e+03 TotEng   = -1.46950901e+04
v_Jx     = -1.17882583e+01 v_Jy     =  3.14961702e+00 v_Jz     =  8.21208633e-01
PotEng   = -1.59459155e+04 KinEng   =  1.25040567e+03 TotEng   = -1.46955099e+04
v_Jx     = -1.29222352e+01 v_Jy     =  2.92526433e+00 v_Jz     =  1.11103035e+01
PotEng   = -1.58849615e+04 KinEng   =  1.19015445e+03 TotEng   = -1.46948070e+04
v_Jx     = -6.15380858e+00 v_Jy     = -4.08652284e-01 v_Jz     =  8.33912703e-01
PotEng   = -1.59251235e+04 KinEng   =  1.22978818e+03 TotEng   = -1.46953353e+04
v_Jx     = -4.38183541e+00 v_Jy     =  1.84878046e+00 v_Jz     = -3.26643528e+00
PotEng   = -1.59239651e+04 KinEng   =  1.22898539e+03 TotEng   = -1.46949797e+04
v_Jx     =  2.90751658e+00 v_Jy     =  3.08681765e+00 v_Jz     = -3.10068067e+00
Loop time of 908.996 on 24 procs for 100000 steps with 3456 atoms

unfix center
unfix constrain
unfix 1
unfix 2
write_restart restart.ice_Ih668.nve
PPPM initialization ...
  extracting TIP4P info from pair style
  G vector (1/distance) = 0.350564
  grid = 30 45 54
  stencil order = 5
  estimated absolute RMS force accuracy = 0.00290786
  estimated relative force accuracy = 8.75692e-06
  3d grid and FFT values/proc = 10560 4050
undump 2

variable v equal vol
Simulation done with volume: 34593.421350742
print "All done"
All done
