# neighbour list search related settings
neighbor	1.0 bin
neigh_modify	every 10 one 10000

# read geometry
read_restart restarts/restart.ice_Ih668.eq.98
  restoring atom style full from restart
  triclinic box = (0 0 0) to (26.6559 23.0847 57.9215) with tilt (-13.328 0 0)
  restoring pair style lj/cut/tip4p/long from restart
  restoring bond style harmonic from restart
  restoring angle style harmonic from restart
  3456 atoms
  2304 bonds
  1152 angles
  read_restart CPU = 0.00354695 secs
include forcefield.ice_Ih668
# This forcefield file sets a 13-Angstrom cutoff, recommended for liquid-
# vapor simulations [Vega & de Miguel, J Chem Phys 126:154707 (2007),
# Vega et al, Faraday Discuss 141:251 (2009)]
# Note that the original TIP4P/2005 model was run with an 8.5 Angstrom
# cutoff [Abascal & Vega, J Chem Phys 123:234505 (2005)].
# Charges and geometry are specified in the "data." file.

mass 1 1.00794 # H
mass 2 15.9994 # O

pair_style lj/cut/tip4p/long 2 1 1 1 0.1546 9.0 #otype htype btype atype rOM cutoff
# style tip4p/long is for use with a long-range Coulombic solver (Ewald or PPPM)
pair_modify tail yes
kspace_style pppm/tip4p 1.0e-5 #desired relative error in forces

#pair_style lj/cut/coul/cut 9.0

pair_coeff 1 1 0.0 0.0
pair_coeff 1 2 0.0 0.0
pair_coeff 2 2 0.18520 3.1589 #epsilon and sigma of O-O

bond_style harmonic
bond_coeff 1 10000.0 0.9572 #coefficiet for harmonic bond, k=0, bond length=0.9572

angle_style harmonic
angle_coeff 1 10000.0 104.52 #coeffiecient for harmonic angle, k=0

# time step and output frequency
# thermo_style custom time temp pe ke etotal
thermo_style	one
thermo          1000
variable dt equal 2.0
variable T equal 200.0
timestep	2

seed1 = 43123
seed2 = 26306
nname = ice_Ih668.eq.98

######################################################
## Equilibration (Langevin dynamics)
## assign initial velocity
## Langevin thermostat, limited step size to 0.1
#fix		1 all nve
## Tstart Tend damp seed
#fix     0 all recenter INIT INIT INIT
#dump        1 all dcd 1000 eq.dcd
## 20ps equibliration
#run		20000
#unfix 0
#unfix 1
#unfix 2
#undump 1

####################################################
# NVT equilibration
velocity 	all create 200 43123 mom yes rot yes dist gaussian
fix constrain all shake 1.0e-4 100 0 b 1 a 1
  find clusters CPU = 0.000540018 secs
fix         NVT all nvt temp $T $T 100.0
fix         NVT all nvt temp 200 $T 100.0
fix         NVT all nvt temp 200 200 100.0
fix center all recenter INIT INIT INIT
dump        1 all dcd 1000 eq.dcd
run         10000
PPPM initialization ...
  extracting TIP4P info from pair style
  G vector (1/distance) = 0.351838
  grid = 32 45 54
  stencil order = 5
  estimated absolute RMS force accuracy = 0.00266143
  estimated relative force accuracy = 8.01482e-06
  3d grid and FFT values/proc = 11040 4320
Unused restart file global fix info:
  fix style: nvt, fix ID: 1
  update every 10 steps, delay 10 steps, check yes
Step Temp E_pair E_mol TotEng Press
10000    300.04342   -15848.224            0   -13788.484    4147.9406
Averages over the last 6 of 11 rows, steps 15000 to 20000:
Temp E_pair E_mol TotEng Press
199.13 -15804.2 0 -14437.2 5041.7
Loop time of 32.581 on 24 procs for 10000 steps with 3456 atoms

unfix       NVT
undump      1

#####################################################
# Define Settings
compute perke all ke/atom
compute perpe all pe/atom
compute perstress all stress/atom NULL virial
compute flux all heat/flux perke perpe perstress
# normalize J vector using volume of the box
# see https://lammps.sandia.gov/doc/compute_heat_flux.html
variable     Jx equal c_flux[1] #/vol
variable     Jy equal c_flux[2] #/vol
variable     Jz equal c_flux[3] #/vol

######################################################
# production run with NVE
# reset time step 0.5 fs
timestep 2
# reset time
reset_timestep 0
thermo_style custom step time temp pe ke etotal v_Jx v_Jy v_Jz
thermo_modify line multi format float %15.8e
thermo 1000
fix 1 all nve
fix 2 all ave/correlate 1 5000 10000 c_flux[1] c_flux[2] c_flux[3] type auto file corr.data ave running
dump 		2 all dcd 1000 nve.dcd
run 100000 # 400 ps
PPPM initialization ...
  extracting TIP4P info from pair style
  G vector (1/distance) = 0.351838
  grid = 32 45 54
  stencil order = 5
  estimated absolute RMS force accuracy = 0.00266143
  estimated relative force accuracy = 8.01482e-06
  3d grid and FFT values/proc = 11040 4320
Step     =              0 Time     =  2.00000000e+04 Temp     =  1.97420981e+02
PotEng   = -1.58071114e+04 KinEng   =  1.35525664e+03 TotEng   = -1.44518547e+04
v_Jx     =  4.35526338e+00 v_Jy     =  3.87081251e+00 v_Jz     =  6.98575872e-01
Step     =           1000 Time     =  2.20000000e+04 Temp     =  1.97885240e+02
PotEng   = -1.58104078e+04 KinEng   =  1.35844370e+03 TotEng   = -1.44519641e+04
v_Jx     =  3.18667268e+00 v_Jy     =  6.56534782e-01 v_Jz     = -2.31136088e+00
Step     =           2000 Time     =  2.40000000e+04 Temp     =  1.97597160e+02
PotEng   = -1.58078990e+04 KinEng   =  1.35646608e+03 TotEng   = -1.44514329e+04
v_Jx     =  1.40377222e-01 v_Jy     =  4.32365069e-01 v_Jz     = -2.42830999e+00
Step     =           3000 Time     =  2.60000000e+04 Temp     =  2.00193812e+02
PotEng   = -1.58258811e+04 KinEng   =  1.37429159e+03 TotEng   = -1.44515895e+04
v_Jx     = -7.85224337e+00 v_Jy     =  5.01592389e+00 v_Jz     =  1.36376452e+01
Step     =           4000 Time     =  2.80000000e+04 Temp     =  1.93202945e+02
PotEng   = -1.57774442e+04 KinEng   =  1.32630065e+03 TotEng   = -1.44511435e+04
v_Jx     =  5.90959129e+00 v_Jy     = -4.34851418e-01 v_Jz     = -5.96993936e-02
Step     =           5000 Time     =  3.00000000e+04 Temp     =  2.00183806e+02
PotEng   = -1.58260792e+04 KinEng   =  1.37422290e+03 TotEng   = -1.44518563e+04
v_Jx     =  4.78816895e+00 v_Jy     =  1.87956484e+00 v_Jz     =  1.46030011e+00
Step     =           6000 Time     =  3.20000000e+04 Temp     =  1.98953427e+02
PotEng   = -1.58176643e+04 KinEng   =  1.36577659e+03 TotEng   = -1.44518877e+04
v_Jx     = -8.77815662e-01 v_Jy     = -5.41933873e+00 v_Jz     =  1.11539820e+01
Step     =           7000 Time     =  3.40000000e+04 Temp     =  2.02334941e+02
PotEng   = -1.58411319e+04 KinEng   =  1.38899002e+03 TotEng   = -1.44521419e+04
v_Jx     = -6.86390687e+00 v_Jy     =  1.24584627e+00 v_Jz     = -8.23684073e-01
Step     =           8000 Time     =  3.60000000e+04 Temp     =  1.99664832e+02
PotEng   = -1.58225773e+04 KinEng   =  1.37066025e+03 TotEng   = -1.44519171e+04
v_Jx     = -1.79239559e+00 v_Jy     = -4.81532999e+00 v_Jz     =  3.13840200e+00
Step     =           9000 Time     =  3.80000000e+04 Temp     =  1.98738543e+02
PotEng   = -1.58155905e+04 KinEng   =  1.36430145e+03 TotEng   = -1.44512890e+04
v_Jx     =  4.65507173e+00 v_Jy     =  3.95536972e+00 v_Jz     = -3.95070937e+00
Step     =          10000 Time     =  4.00000000e+04 Temp     =  1.96110334e+02
PotEng   = -1.57978984e+04 KinEng   =  1.34625931e+03 TotEng   = -1.44516391e+04
v_Jx     =  1.04527707e+00 v_Jy     =  4.98387237e+00 v_Jz     =  1.39225851e+00
Step     =          11000 Time     =  4.20000000e+04 Temp     =  1.97399816e+02
PotEng   = -1.58068383e+04 KinEng   =  1.35511135e+03 TotEng   = -1.44517270e+04
v_Jx     =  8.78519614e+00 v_Jy     = -2.66446849e+00 v_Jz     =  2.04941037e-01
Step     =          12000 Time     =  4.40000000e+04 Temp     =  2.00748562e+02
PotEng   = -1.58301377e+04 KinEng   =  1.37809984e+03 TotEng   = -1.44520378e+04
v_Jx     =  8.38389701e+00 v_Jy     = -9.89155787e-01 v_Jz     = -4.50072713e+00
Step     =          13000 Time     =  4.60000000e+04 Temp     =  2.01123908e+02
PotEng   = -1.58325403e+04 KinEng   =  1.38067652e+03 TotEng   = -1.44518638e+04
v_Jx     = -4.45481161e+00 v_Jy     = -3.35335828e+00 v_Jz     =  1.01179422e+00
Step     =          14000 Time     =  4.80000000e+04 Temp     =  2.00357554e+02
PotEng   = -1.58270092e+04 KinEng   =  1.37541565e+03 TotEng   = -1.44515936e+04
v_Jx     =  7.94093843e+00 v_Jy     =  4.37114215e-01 v_Jz     =  6.85360222e-01
Step     =          15000 Time     =  5.00000000e+04 Temp     =  1.95884618e+02
PotEng   = -1.57957358e+04 KinEng   =  1.34470981e+03 TotEng   = -1.44510260e+04
v_Jx     =  2.27094602e+00 v_Jy     = -1.72254585e+00 v_Jz     = -1.24998291e+00
Step     =          16000 Time     =  5.20000000e+04 Temp     =  2.00499770e+02
PotEng   = -1.58282695e+04 KinEng   =  1.37639194e+03 TotEng   = -1.44518775e+04
v_Jx     = -8.87712540e+00 v_Jy     = -2.43316047e+00 v_Jz     = -1.04053543e-01
Step     =          17000 Time     =  5.40000000e+04 Temp     =  1.98868561e+02
PotEng   = -1.58164393e+04 KinEng   =  1.36519400e+03 TotEng   = -1.44512453e+04
v_Jx     = -8.47819177e+00 v_Jy     =  5.68578457e+00 v_Jz     = -1.24820183e+00
Step     =          18000 Time     =  5.60000000e+04 Temp     =  1.98967990e+02
PotEng   = -1.58176592e+04 KinEng   =  1.36587656e+03 TotEng   = -1.44517827e+04
v_Jx     =  1.43183283e+01 v_Jy     = -2.29285984e+00 v_Jz     = -5.27240904e-02
Step     =          19000 Time     =  5.80000000e+04 Temp     =  2.01811318e+02
PotEng   = -1.58371055e+04 KinEng   =  1.38539545e+03 TotEng   = -1.44517101e+04
v_Jx     = -8.71465453e+00 v_Jy     =  4.67160410e+00 v_Jz     =  2.95255361e+00
Step     =          20000 Time     =  6.00000000e+04 Temp     =  2.03493854e+02
PotEng   = -1.58485627e+04 KinEng   =  1.39694574e+03 TotEng   = -1.44516170e+04
v_Jx     = -1.45961038e+01 v_Jy     = -4.76194283e+00 v_Jz     =  3.12094852e+00
Step     =          21000 Time     =  6.20000000e+04 Temp     =  1.99476768e+02
PotEng   = -1.58208948e+04 KinEng   =  1.36936922e+03 TotEng   = -1.44515255e+04
v_Jx     =  4.23593467e-01 v_Jy     = -2.79691618e+00 v_Jz     =  5.87224084e+00
Step     =          22000 Time     =  6.40000000e+04 Temp     =  1.96476605e+02
PotEng   = -1.58001416e+04 KinEng   =  1.34877369e+03 TotEng   = -1.44513679e+04
v_Jx     = -2.74535737e+00 v_Jy     =  3.64138111e+00 v_Jz     =  6.57632057e+00
Step     =          23000 Time     =  6.60000000e+04 Temp     =  1.97844645e+02
PotEng   = -1.58097716e+04 KinEng   =  1.35816502e+03 TotEng   = -1.44516066e+04
v_Jx     = -4.12974336e-01 v_Jy     = -5.00779865e+00 v_Jz     =  3.19612654e+00
Step     =          24000 Time     =  6.80000000e+04 Temp     =  1.98463085e+02
PotEng   = -1.58137263e+04 KinEng   =  1.36241049e+03 TotEng   = -1.44513158e+04
v_Jx     =  5.54598142e+00 v_Jy     =  1.21419926e+00 v_Jz     =  6.53974627e-01
Step     =          25000 Time     =  7.00000000e+04 Temp     =  1.99324014e+02
PotEng   = -1.58199905e+04 KinEng   =  1.36832060e+03 TotEng   = -1.44516699e+04
v_Jx     =  9.50097379e+00 v_Jy     = -1.76481286e+00 v_Jz     = -1.58567233e+00
Step     =          26000 Time     =  7.20000000e+04 Temp     =  2.00102349e+02
PotEng   = -1.58252372e+04 KinEng   =  1.37366372e+03 TotEng   = -1.44515735e+04
v_Jx     = -8.50533200e-01 v_Jy     = -6.26665665e+00 v_Jz     = -7.84095099e+00
Step     =          27000 Time     =  7.40000000e+04 Temp     =  1.98941685e+02
PotEng   = -1.58169437e+04 KinEng   =  1.36569598e+03 TotEng   = -1.44512477e+04
v_Jx     =  3.14295569e+00 v_Jy     = -4.61345381e+00 v_Jz     = -1.86047500e+00
Step     =          28000 Time     =  7.60000000e+04 Temp     =  1.99211507e+02
PotEng   = -1.58188954e+04 KinEng   =  1.36754826e+03 TotEng   = -1.44513471e+04
v_Jx     = -6.88599217e-01 v_Jy     =  2.96198388e-01 v_Jz     =  4.41124287e+00
Step     =          29000 Time     =  7.80000000e+04 Temp     =  1.97602446e+02
PotEng   = -1.58072992e+04 KinEng   =  1.35650237e+03 TotEng   = -1.44507968e+04
v_Jx     = -4.35432681e+00 v_Jy     = -8.12387626e+00 v_Jz     = -5.38538667e+00
Step     =          30000 Time     =  8.00000000e+04 Temp     =  1.98907451e+02
PotEng   = -1.58170775e+04 KinEng   =  1.36546097e+03 TotEng   = -1.44516165e+04
v_Jx     =  1.12790579e+01 v_Jy     = -6.91688582e-01 v_Jz     = -4.96421601e+00
Step     =          31000 Time     =  8.20000000e+04 Temp     =  1.98251986e+02
PotEng   = -1.58118186e+04 KinEng   =  1.36096133e+03 TotEng   = -1.44508572e+04
v_Jx     =  3.97893327e+00 v_Jy     = -5.91386012e+00 v_Jz     = -2.99399679e+00
Step     =          32000 Time     =  8.40000000e+04 Temp     =  1.99947122e+02
PotEng   = -1.58238208e+04 KinEng   =  1.37259811e+03 TotEng   = -1.44512227e+04
v_Jx     =  4.89460967e+00 v_Jy     = -9.32797414e-01 v_Jz     = -7.30769872e-01
Step     =          33000 Time     =  8.60000000e+04 Temp     =  1.96290168e+02
PotEng   = -1.57985050e+04 KinEng   =  1.34749383e+03 TotEng   = -1.44510112e+04
v_Jx     =  1.15123619e+00 v_Jy     =  6.02216342e+00 v_Jz     =  9.72058793e+00
Step     =          34000 Time     =  8.80000000e+04 Temp     =  1.96780449e+02
PotEng   = -1.58020522e+04 KinEng   =  1.35085952e+03 TotEng   = -1.44511926e+04
v_Jx     =  2.81972077e+00 v_Jy     =  7.25879577e+00 v_Jz     =  6.75096724e+00
Step     =          35000 Time     =  9.00000000e+04 Temp     =  1.99376327e+02
PotEng   = -1.58196990e+04 KinEng   =  1.36867971e+03 TotEng   = -1.44510193e+04
v_Jx     = -3.38495064e+00 v_Jy     =  4.45367014e-02 v_Jz     =  8.67916005e+00
Step     =          36000 Time     =  9.20000000e+04 Temp     =  2.01304996e+02
PotEng   = -1.58332295e+04 KinEng   =  1.38191965e+03 TotEng   = -1.44513099e+04
v_Jx     = -2.45912812e+00 v_Jy     = -9.79258784e-02 v_Jz     =  2.15471474e+00
Step     =          37000 Time     =  9.40000000e+04 Temp     =  2.02010473e+02
PotEng   = -1.58380310e+04 KinEng   =  1.38676262e+03 TotEng   = -1.44512683e+04
v_Jx     =  9.60298396e-01 v_Jy     =  9.32311805e+00 v_Jz     = -4.20869594e+00
Step     =          38000 Time     =  9.60000000e+04 Temp     =  1.97360799e+02
PotEng   = -1.58056619e+04 KinEng   =  1.35484351e+03 TotEng   = -1.44508184e+04
v_Jx     = -3.79613374e+00 v_Jy     = -8.82257287e-01 v_Jz     =  8.97686347e-01
PotEng   = -1.58129027e+04 KinEng   =  1.36171917e+03 TotEng   = -1.44511835e+04
v_Jx     =  5.18984395e+00 v_Jy     = -1.33333385e+00 v_Jz     =  3.21501500e+00
PotEng   = -1.57986128e+04 KinEng   =  1.34753954e+03 TotEng   = -1.44510733e+04
v_Jx     = -1.22813323e+01 v_Jy     = -3.53217518e+00 v_Jz     = -1.01275420e+01
PotEng   = -1.58093785e+04 KinEng   =  1.35827279e+03 TotEng   = -1.44511057e+04
v_Jx     = -6.74618672e+00 v_Jy     =  1.03427904e+00 v_Jz     =  6.55872886e+00
PotEng   = -1.57960269e+04 KinEng   =  1.34527300e+03 TotEng   = -1.44507539e+04
v_Jx     = -8.81221503e+00 v_Jy     = -2.83961360e+00 v_Jz     = -2.40560007e+00
PotEng   = -1.58147635e+04 KinEng   =  1.36356041e+03 TotEng   = -1.44512031e+04
v_Jx     = -5.03080314e+00 v_Jy     = -5.70802231e+00 v_Jz     =  1.57032313e+00
PotEng   = -1.58061403e+04 KinEng   =  1.35516711e+03 TotEng   = -1.44509732e+04
v_Jx     =  2.86710826e+00 v_Jy     = -2.64944233e+00 v_Jz     = -1.26669275e+01
PotEng   = -1.57904580e+04 KinEng   =  1.33945579e+03 TotEng   = -1.44510022e+04
v_Jx     =  9.44764873e-01 v_Jy     = -1.31886042e+00 v_Jz     =  8.29894008e-01
PotEng   = -1.58436721e+04 KinEng   =  1.39221354e+03 TotEng   = -1.44514586e+04
v_Jx     =  6.69880133e+00 v_Jy     =  5.25303626e+00 v_Jz     = -3.74293020e+00
PotEng   = -1.58346329e+04 KinEng   =  1.38317988e+03 TotEng   = -1.44514530e+04
v_Jx     =  1.02930074e+00 v_Jy     =  5.94956801e+00 v_Jz     =  1.41688080e+00
PotEng   = -1.58128447e+04 KinEng   =  1.36173578e+03 TotEng   = -1.44511089e+04
v_Jx     = -3.35675435e+00 v_Jy     =  1.70153427e-01 v_Jz     = -5.65461582e+00
PotEng   = -1.57863621e+04 KinEng   =  1.33630529e+03 TotEng   = -1.44500568e+04
v_Jx     =  6.60419813e+00 v_Jy     =  7.34233189e+00 v_Jz     =  5.29785854e+00
PotEng   = -1.58132949e+04 KinEng   =  1.36238794e+03 TotEng   = -1.44509069e+04
v_Jx     = -2.95779594e+00 v_Jy     = -1.24535057e+01 v_Jz     = -2.67069269e+00
PotEng   = -1.58057718e+04 KinEng   =  1.35472009e+03 TotEng   = -1.44510517e+04
v_Jx     = -3.33641762e-01 v_Jy     = -2.91336669e+00 v_Jz     = -4.27873441e+00
PotEng   = -1.58278200e+04 KinEng   =  1.37670440e+03 TotEng   = -1.44511156e+04
v_Jx     =  9.13066164e+00 v_Jy     =  2.48085503e-01 v_Jz     =  1.98986354e+00
PotEng   = -1.58068619e+04 KinEng   =  1.35594936e+03 TotEng   = -1.44509126e+04
v_Jx     = -2.62568654e+00 v_Jy     = -4.67986734e+00 v_Jz     = -6.83408533e+00
PotEng   = -1.58295476e+04 KinEng   =  1.37848804e+03 TotEng   = -1.44510596e+04
v_Jx     = -4.11177740e+00 v_Jy     =  2.24175919e+00 v_Jz     = -2.73616166e+00
PotEng   = -1.58358540e+04 KinEng   =  1.38491722e+03 TotEng   = -1.44509368e+04
v_Jx     = -1.27618596e+00 v_Jy     =  3.07841388e-01 v_Jz     =  1.04003820e+01
PotEng   = -1.58288011e+04 KinEng   =  1.37811595e+03 TotEng   = -1.44506852e+04
v_Jx     = -2.36800130e+00 v_Jy     = -6.25519490e+00 v_Jz     =  2.57937413e+00
PotEng   = -1.58042524e+04 KinEng   =  1.35367041e+03 TotEng   = -1.44505820e+04
v_Jx     =  4.74097449e+00 v_Jy     = -3.36091481e-01 v_Jz     =  1.71883035e+00
PotEng   = -1.58228142e+04 KinEng   =  1.37170902e+03 TotEng   = -1.44511052e+04
v_Jx     =  6.06771218e-01 v_Jy     = -6.05303623e+00 v_Jz     =  8.09520651e+00
PotEng   = -1.58217697e+04 KinEng   =  1.37058782e+03 TotEng   = -1.44511819e+04
v_Jx     = -3.96072338e+00 v_Jy     =  1.59416929e+00 v_Jz     = -7.00264174e+00
PotEng   = -1.57885858e+04 KinEng   =  1.33806195e+03 TotEng   = -1.44505238e+04
v_Jx     = -5.65523794e+00 v_Jy     =  8.26937731e+00 v_Jz     =  2.47305490e+00
PotEng   = -1.58118183e+04 KinEng   =  1.36124657e+03 TotEng   = -1.44505717e+04
v_Jx     =  2.23737159e+00 v_Jy     =  2.25448797e+00 v_Jz     =  3.75713733e+00
PotEng   = -1.58020098e+04 KinEng   =  1.35141726e+03 TotEng   = -1.44505925e+04
v_Jx     = -7.50888802e+00 v_Jy     = -7.88042574e-01 v_Jz     = -3.95340778e+00
PotEng   = -1.58464730e+04 KinEng   =  1.39569228e+03 TotEng   = -1.44507807e+04
v_Jx     =  3.26964032e+00 v_Jy     =  1.00070543e+00 v_Jz     = -3.72255764e+00
PotEng   = -1.58367144e+04 KinEng   =  1.38611897e+03 TotEng   = -1.44505954e+04
v_Jx     =  8.93820467e+00 v_Jy     =  1.18416210e+00 v_Jz     = -1.16597016e+01
PotEng   = -1.58398409e+04 KinEng   =  1.38866526e+03 TotEng   = -1.44511757e+04
v_Jx     = -2.00456506e+00 v_Jy     = -2.42833410e+00 v_Jz     = -8.59373378e+00
PotEng   = -1.58189337e+04 KinEng   =  1.36794555e+03 TotEng   = -1.44509881e+04
v_Jx     =  2.25453606e+00 v_Jy     = -3.87041322e+00 v_Jz     = -1.53123393e+00
PotEng   = -1.58397356e+04 KinEng   =  1.38921519e+03 TotEng   = -1.44505204e+04
v_Jx     =  5.95699553e+00 v_Jy     =  3.74975818e+00 v_Jz     = -2.70899495e+00
PotEng   = -1.58037678e+04 KinEng   =  1.35335705e+03 TotEng   = -1.44504108e+04
v_Jx     =  1.45115677e+00 v_Jy     = -5.95182252e-01 v_Jz     =  6.64059980e+00
PotEng   = -1.58186266e+04 KinEng   =  1.36822178e+03 TotEng   = -1.44504048e+04
v_Jx     =  1.45316563e+01 v_Jy     =  3.66210307e+00 v_Jz     = -3.28073039e+00
PotEng   = -1.58457380e+04 KinEng   =  1.39467595e+03 TotEng   = -1.44510621e+04
v_Jx     =  1.43876761e+00 v_Jy     = -2.18120326e+00 v_Jz     = -9.82863459e+00
PotEng   = -1.58301858e+04 KinEng   =  1.37944371e+03 TotEng   = -1.44507421e+04
v_Jx     =  8.92997241e+00 v_Jy     =  7.56557944e-01 v_Jz     =  2.11857925e+00
PotEng   = -1.58313017e+04 KinEng   =  1.38074073e+03 TotEng   = -1.44505610e+04
v_Jx     = -3.18979629e+00 v_Jy     =  6.05762467e+00 v_Jz     = -6.45734550e+00
PotEng   = -1.58196490e+04 KinEng   =  1.36909191e+03 TotEng   = -1.44505571e+04
v_Jx     =  1.32701365e+01 v_Jy     =  2.26043768e+00 v_Jz     = -7.74542623e-01
PotEng   = -1.58126527e+04 KinEng   =  1.36244137e+03 TotEng   = -1.44502114e+04
v_Jx     = -7.90593880e-01 v_Jy     = -5.00477034e+00 v_Jz     =  3.58222155e+00
PotEng   = -1.57774245e+04 KinEng   =  1.32739938e+03 TotEng   = -1.44500251e+04
v_Jx     = -5.08633575e+00 v_Jy     = -8.92365819e+00 v_Jz     =  4.75976068e+00
PotEng   = -1.58149392e+04 KinEng   =  1.36438732e+03 TotEng   = -1.44505519e+04
v_Jx     =  1.06707321e+01 v_Jy     = -4.66066013e+00 v_Jz     =  5.37669650e-01
PotEng   = -1.57831263e+04 KinEng   =  1.33307023e+03 TotEng   = -1.44500561e+04
v_Jx     =  4.27985648e+00 v_Jy     =  7.15008418e+00 v_Jz     =  5.35465254e+00
PotEng   = -1.58376472e+04 KinEng   =  1.38722596e+03 TotEng   = -1.44504213e+04
v_Jx     =  1.15022502e+00 v_Jy     = -4.27633647e+00 v_Jz     = -6.93390808e-01
PotEng   = -1.58361365e+04 KinEng   =  1.38571181e+03 TotEng   = -1.44504247e+04
v_Jx     = -1.13996977e+01 v_Jy     = -4.85436570e-01 v_Jz     =  2.23442886e+00
PotEng   = -1.58210279e+04 KinEng   =  1.37068019e+03 TotEng   = -1.44503477e+04
v_Jx     =  4.28540016e+00 v_Jy     =  1.60976467e+00 v_Jz     = -4.31369394e+00
PotEng   = -1.58247430e+04 KinEng   =  1.37442482e+03 TotEng   = -1.44503181e+04
v_Jx     = -7.04759987e-01 v_Jy     =  1.38717908e+01 v_Jz     = -3.57224624e+00
PotEng   = -1.58069041e+04 KinEng   =  1.35668362e+03 TotEng   = -1.44502205e+04
v_Jx     = -1.03962664e+01 v_Jy     =  2.21450444e+00 v_Jz     = -1.15908184e+01
PotEng   = -1.58138064e+04 KinEng   =  1.36344447e+03 TotEng   = -1.44503619e+04
v_Jx     = -1.46179716e+01 v_Jy     =  1.01525859e+01 v_Jz     = -7.30692076e-01
PotEng   = -1.58192489e+04 KinEng   =  1.36881931e+03 TotEng   = -1.44504296e+04
v_Jx     = -1.25611110e+01 v_Jy     =  6.80690174e-01 v_Jz     = -6.26057293e-01
PotEng   = -1.58249288e+04 KinEng   =  1.37478842e+03 TotEng   = -1.44501403e+04
v_Jx     =  1.05708179e+01 v_Jy     =  3.20244640e+00 v_Jz     = -9.94748931e+00
PotEng   = -1.58370279e+04 KinEng   =  1.38655598e+03 TotEng   = -1.44504719e+04
v_Jx     =  9.74715966e+00 v_Jy     =  3.62456995e+00 v_Jz     =  5.22719079e+00
PotEng   = -1.58017730e+04 KinEng   =  1.35205162e+03 TotEng   = -1.44497214e+04
v_Jx     = -1.41983189e+01 v_Jy     =  2.26385756e+00 v_Jz     =  4.93579239e+00
PotEng   = -1.58479097e+04 KinEng   =  1.39722467e+03 TotEng   = -1.44506850e+04
v_Jx     = -4.01336738e+00 v_Jy     =  1.45625224e+00 v_Jz     =  7.36767642e+00
PotEng   = -1.58211898e+04 KinEng   =  1.37106094e+03 TotEng   = -1.44501289e+04
v_Jx     = -9.36606938e+00 v_Jy     =  7.76289220e-01 v_Jz     = -6.28217716e+00
PotEng   = -1.58394493e+04 KinEng   =  1.38890767e+03 TotEng   = -1.44505416e+04
v_Jx     =  8.01014111e+00 v_Jy     =  4.66581320e+00 v_Jz     = -6.62462846e+00
PotEng   = -1.58435670e+04 KinEng   =  1.39273410e+03 TotEng   = -1.44508329e+04
v_Jx     =  1.67014459e+00 v_Jy     = -7.22153938e-01 v_Jz     =  3.11711931e-01
PotEng   = -1.58225815e+04 KinEng   =  1.37211503e+03 TotEng   = -1.44504665e+04
v_Jx     = -9.41106316e+00 v_Jy     =  6.30249194e+00 v_Jz     = -2.29322953e+00
PotEng   = -1.58089821e+04 KinEng   =  1.35905141e+03 TotEng   = -1.44499307e+04
v_Jx     =  2.79724763e+00 v_Jy     =  3.63799729e+00 v_Jz     =  5.38593768e+00
PotEng   = -1.58159233e+04 KinEng   =  1.36592972e+03 TotEng   = -1.44499936e+04
v_Jx     =  1.00249048e+01 v_Jy     = -6.51166976e+00 v_Jz     =  2.15780520e+00
PotEng   = -1.58282695e+04 KinEng   =  1.37810664e+03 TotEng   = -1.44501629e+04
v_Jx     =  1.09200011e+00 v_Jy     = -5.45746973e+00 v_Jz     = -9.86186385e-01
PotEng   = -1.58058633e+04 KinEng   =  1.35598167e+03 TotEng   = -1.44498816e+04
v_Jx     =  2.64332416e+00 v_Jy     =  1.05162508e+01 v_Jz     = -5.91433808e+00
PotEng   = -1.58010154e+04 KinEng   =  1.35116274e+03 TotEng   = -1.44498527e+04
v_Jx     =  2.08000659e+00 v_Jy     = -2.13154774e+00 v_Jz     = -8.63468387e+00
PotEng   = -1.58276105e+04 KinEng   =  1.37751109e+03 TotEng   = -1.44500994e+04
v_Jx     =  6.60107007e+00 v_Jy     =  6.36677990e+00 v_Jz     = -3.85823364e+00
PotEng   = -1.58193411e+04 KinEng   =  1.36887474e+03 TotEng   = -1.44504664e+04
v_Jx     =  4.39528145e+00 v_Jy     = -9.01025882e+00 v_Jz     =  1.97214492e+00
PotEng   = -1.58017143e+04 KinEng   =  1.35159230e+03 TotEng   = -1.44501220e+04
v_Jx     =  7.26423699e+00 v_Jy     =  2.40099320e+00 v_Jz     =  1.51752333e+00
Loop time of 894.56 on 24 procs for 100000 steps with 3456 atoms

unfix center
unfix constrain
unfix 1
unfix 2
write_restart restart.ice_Ih668.nve
PPPM initialization ...
  extracting TIP4P info from pair style
  G vector (1/distance) = 0.351838
  grid = 32 45 54
  stencil order = 5
  estimated absolute RMS force accuracy = 0.00266143
  estimated relative force accuracy = 8.01482e-06
  3d grid and FFT values/proc = 11040 4320
undump 2

variable v equal vol
Simulation done with volume: 35641.6365240757
print "All done"
All done
